<?xml version="1.0" encoding="UTF-8"?>

<!-- generated on 2026-02-04 19:28:18 by Eclipse SUMO duarouter Version 1.22.0
<duarouterConfiguration xmlns:xsi="http://www.w3.org/2001/XMLSchema-instance" xsi:noNamespaceSchemaLocation="http://sumo.dlr.de/xsd/duarouterConfiguration.xsd">

    <input>
        <net-file value="data/sumo/network/ibarra_mayorista_10cuadras.net.xml"/>
        <route-files value="data/sumo/routes/ibarra_trips.xml"/>
    </input>

    <output>
        <output-file value="data/sumo/routes/ibarra_mayorista_1h.rou.xml"/>
    </output>

    <report>
        <no-warnings value="true"/>
        <ignore-errors value="true"/>
    </report>

</duarouterConfiguration>
-->

<routes xmlns:xsi="http://www.w3.org/2001/XMLSchema-instance" xsi:noNamespaceSchemaLocation="http://sumo.dlr.de/xsd/routes_file.xsd">
    <vehicle id="0" depart="0.00">
        <route edges="51962344#1 51962344#2 1228099670 51962372#0 51962372#1 51962372#3 1093918317 1442945729 759927383#0 759927383#1 759927383#2 759927383#3 -1228099688 -1227603550#2 -1227603550#1 -1227603551#2 -1227603551#1"/>
    </vehicle>
    <vehicle id="1" depart="6.00">
        <route edges="-51962699#1 894853355 51962700#1 51962700#2 -51962700#2"/>
    </vehicle>
    <vehicle id="2" depart="12.00">
        <route edges="51962581#1 51962581#2 51962581#3"/>
    </vehicle>
    <vehicle id="3" depart="18.00">
        <route edges="51962716#0 -51962708#2 51962699#2 51962699#3 750471838#2 750471838#3 750471838#4 750471838#5 750471837#0 750471837#1 750471837#2 51962631#5 -51962352"/>
    </vehicle>
    <vehicle id="4" depart="24.00">
        <route edges="-894853346 1227603551#2 1228099684 756028261 750471838#0 750471838#1 750471838#2 750471838#3 750471838#4 750471838#5 53960645#4 53960645#5 53960645#6 -1227883867#1 -1227883867#0"/>
    </vehicle>
    <vehicle id="5" depart="30.00">
        <route edges="-51962606#2 -51962715 51962716#0 51962716#2 51962716#4 -756028261 -1228099684 1227603550#0 1227603550#2 1228099687#0 1228099687#1"/>
    </vehicle>
    <vehicle id="6" depart="36.00">
        <route edges="-1190515159#2 -1190515159#1 -1190515159#0 759927383#2 759927383#3 -1228099688 -1227603550#2 -1227603550#1 1228099684 -51962697#2 -51962697#1 -51962606#3 364027516 51962717#1 -51962674#1"/>
    </vehicle>
    <vehicle id="7" depart="42.00">
        <route edges="51962350#0 51962350#1 107366880#4 409566594#0 409566594#1 409566594#2 409566594#3 409566594#4 1227603545#2 1227603545#3 1227603545#4 1227603545#5 1227603545#6 1227603545#7 1227603545#0 409566592#0 409566592#1"/>
    </vehicle>
    <vehicle id="8" depart="48.00">
        <route edges="-51962606#3 -51962606#2 -51962606#1 -51962606#0 -51962581#0 -1227883882 -1227883867#1 107366880#0 107366880#1 107366880#2 107366880#3 107366880#4 409566594#0 409566594#1 409566594#2 409566594#3 409566594#4 1227603545#2 1227603545#3 1227603545#4 409566596 1228099673#0 1228099673#1 1228099673#2 -51962344#2 51962344#2"/>
    </vehicle>
    <vehicle id="9" depart="54.00">
        <route edges="51962697#2 1228099685#0 1228099685#1 1228099685#2 1227603549#0 1227603549#1 -759908639 759927383#1 1190515159#0 1190515159#1 1190515159#2 -1190515159#2 -1190515159#1"/>
    </vehicle>
    <vehicle id="10" depart="60.00">
        <route edges="51962697#0 51962697#2 756028261 -51962716#4 -51962716#3 -51962716#1 51962715 -51962659#2 -51962659#1 51962595#1 51962595#2"/>
    </vehicle>
    <vehicle id="11" depart="66.00">
        <route edges="-51962709 759927383#1 759927383#2 759927383#3 -1228099688 -1227603550#2 -1227603550#1 1228099684 -51962697#2 -51962697#1 -51962606#3"/>
    </vehicle>
    <vehicle id="12" depart="72.00">
        <route edges="750471838#1 750471838#2 750471838#3 750471838#4 750471838#5 750471837#0 107366880#1"/>
    </vehicle>
    <vehicle id="13" depart="78.00">
        <route edges="-1228099685#2 1228099685#2 1227603549#0 1227603549#1 1227603549#2 409566601#0 409566601#1 1227603545#0 409566592#0 409566592#1 409566592#2 409566592#3 -51962355#1"/>
    </vehicle>
    <vehicle id="14" depart="84.00">
        <route edges="51962703#1 51962705#0 51962705#1 51962705#2 -51962701 1227603549#2 409566601#0 409566601#1 1227603545#0 409566592#0 409566592#1 409566592#2 409566592#3 53960645#0 51962350#1 51962350#2"/>
    </vehicle>
    <vehicle id="15" depart="90.00">
        <route edges="51962697#0 51962697#2 756028261 750471838#0 750471838#1 750471838#2 750471838#3 750471838#4 750471838#5 750471837#0 750471837#1 750471837#2 -51962631#4 51962631#4"/>
    </vehicle>
    <vehicle id="16" depart="96.00">
        <route edges="1227883867#1 1227883882 1392385901 559245100#0 559245100#1 51962716#0 51962716#2 51962716#4 -756028261 -1228099684 -1227603551#2 894853346"/>
    </vehicle>
    <vehicle id="17" depart="102.00">
        <route edges="-51962729#2 -51962729#0 759927383#3 -1228099688 1228099687#0 1228099687#1 1227603549#0 1227603549#1 1227603549#2 409566601#0 409566601#1 1227603545#0 409566592#0 409566592#1 409566592#2 409566592#3 -51962355#1 409566594#0"/>
    </vehicle>
    <vehicle id="18" depart="108.00">
        <route edges="51962700#3 750471838#5 750471837#0 107366880#1 107366880#2 107366880#3 107366880#4 51962355#1 51962355#2"/>
    </vehicle>
    <vehicle id="19" depart="114.00">
        <route edges="51962707#0 51962705#1 51962705#2 -51962701 1227603549#2 409566601#0 409566601#1"/>
    </vehicle>
    <vehicle id="20" depart="120.00">
        <route edges="51962541#0 -51962546 409566603#1 1227603545#4 1227603545#5 1227603545#6 409566600#0 409566600#1 409566600#2 1442945729 759927383#0 759927383#1 759927383#2 759927383#3 -1228099688"/>
    </vehicle>
    <vehicle id="21" depart="126.00">
        <route edges="-51962606#4 -51962606#3 -51962606#2 -51962715 51962716#0 51962716#2 -51962716#3"/>
    </vehicle>
    <vehicle id="22" depart="132.00">
        <route edges="-1227883867#0 1227883867#0 1227883867#1 1227883882 1392385901 559245100#0 559245100#1 51962716#0 51962716#2 51962716#4 750471838#0 1189297793 -51962703#0"/>
    </vehicle>
    <vehicle id="23" depart="138.00">
        <route edges="-51962344#1 51962344#1 1227603556#2 409566590#0 409566590#1 409566590#2 1227603545#6 1227603545#7 1227603545#0 409566592#0 409566592#1 409566592#2 409566592#3 53960645#0 53960645#1 53960645#2 53960645#3 53960645#4 53960645#5 53960645#6 -1227883867#1 -1227883867#0 1340532650 1189099248#3 1189099248#4 1189099248#5 1189099248#6 1189099248#7 -51962712"/>
    </vehicle>
    <vehicle id="24" depart="144.00">
        <route edges="51962344#0 51962722 51962372#3 1093918317 107627047"/>
    </vehicle>
    <vehicle id="25" depart="150.00">
        <route edges="-51962722 -51962344#0 409566600#1 409566600#2 1442945729 759927383#0 759908639 51962701 -51962705#2 -51962705#1 -51962705#0 -51962703#1 -1189297793 750471838#1 -51962699#3 -51962699#2 -51962699#1"/>
    </vehicle>
    <vehicle id="26" depart="156.00">
        <route edges="-51962674#2 51962717#2 -51962581#1 -51962581#0 -1227883882 -1227883867#1 107366880#0 750471837#1 750471837#2 750471837#3 750471837#4"/>
    </vehicle>
    <vehicle id="27" depart="162.00">
        <route edges="51962350#0 51962350#1 107366880#4 51962355#1 51962355#2"/>
    </vehicle>
    <vehicle id="28" depart="168.00">
        <route edges="-51962557 -51962631#7 -51962631#6 -51962631#5 -51962631#4 -51962631#3 51962631#3"/>
    </vehicle>
    <vehicle id="29" depart="174.00">
        <route edges="-51962557 51962631#8 409566594#0 409566594#1 409566594#2 409566594#3 409566594#4 1227603545#2 1227603545#3 1227603545#4 1227603545#5 1227603545#6 409566600#0 409566600#1 409566600#2 1442945729 759927383#0 759908639 51962701 1118219312"/>
    </vehicle>
    <vehicle id="30" depart="180.00">
        <route edges="759927383#1 759927383#2 759927383#3 -1228099688 1228099687#0 1228099687#1 1227603549#0 1227603549#1 1227603549#2 409566601#0 409566601#1 1227603545#0 1227603545#1 1227603545#2 1227603545#3 1227603545#4 409566596 51962544 51962541#0"/>
    </vehicle>
    <vehicle id="31" depart="186.00">
        <route edges="1228099685#0 51962703#3 1227603550#2 1228099688 51962590#0 51962590#2"/>
    </vehicle>
    <vehicle id="32" depart="192.00">
        <route edges="51962703#0 51962703#1 51962705#0 51962705#1 51962705#2 -51962701 51962701"/>
    </vehicle>
    <vehicle id="33" depart="198.00">
        <route edges="-51962606#4 -51962606#3 -51962606#2 -51962606#1 -51962606#0 -51962581#0 -1227883882 -1227883867#1"/>
    </vehicle>
    <vehicle id="34" depart="204.00">
        <route edges="-51962703#3 1228099685#1 -51962707#1 -51962707#0"/>
    </vehicle>
    <vehicle id="35" depart="210.00">
        <route edges="-51962595#2 51962674#1 51962717#2 -51962581#1 -51962581#0 -1227883882 -1227883867#1 107366880#0 750471837#1 750471837#2 750471837#3 750471837#4"/>
    </vehicle>
    <vehicle id="36" depart="216.00">
        <route edges="51962708#0 51962708#1 51962708#2 51962716#2 51962716#4 -756028261 -1228099684 -756030215"/>
    </vehicle>
    <vehicle id="37" depart="222.00">
        <route edges="51962350#1 107366880#4 409566594#0 409566594#1 409566594#2 409566594#3 409566594#4 1227603545#2 1227603545#3 1227603545#4 1227603545#5 1227603545#6 409566600#0 409566600#1 409566600#2 1442945729 759927383#0 759927383#1 1190515159#0"/>
    </vehicle>
    <vehicle id="38" depart="228.00">
        <route edges="525739383#0 107366880#2 107366880#3 107366880#4 409566594#0 409566594#1 409566594#2 409566594#3 409566594#4 1227603545#2 1227603545#3 1227603545#4 1227603545#5 1227603545#6 409566600#0 409566600#1 409566600#2 1442945729 759927383#0 759927383#1 759927383#2 759927383#3 -1228099688 -1227603550#2 1227603550#2"/>
    </vehicle>
    <vehicle id="39" depart="234.00">
        <route edges="-51962674#1 -51962595#1 -51962595#0 51962697#0 51962697#2 1228099685#0 -51962703#2"/>
    </vehicle>
    <vehicle id="40" depart="240.00">
        <route edges="1228099685#2 1227603549#0 51962702#0 -51962705#1 -51962707#0"/>
    </vehicle>
    <vehicle id="41" depart="246.00">
        <route edges="409566590#0 409566590#1 409566590#2 1227603545#6 1227603545#7 1227603545#0 409566592#0 409566592#1 409566592#2 409566592#3 53960645#0 53960645#1 53960645#2 525739739"/>
    </vehicle>
    <vehicle id="42" depart="252.00">
        <route edges="-525739382 -51962631#6 525739383#0 525739383#1 53960645#3 53960645#4 53960645#5 51962708#0 -51962700#1"/>
    </vehicle>
    <vehicle id="43" depart="258.00">
        <route edges="894853355 51962700#1 -51962708#0 53960645#6 -1227883867#1 -1227883867#0 1340532650"/>
    </vehicle>
    <vehicle id="44" depart="264.00">
        <route edges="-1228099685#1 51962703#3 1227603550#2 1228099688 -1228099688"/>
    </vehicle>
    <vehicle id="45" depart="270.00">
        <route edges="-51962350#2 107366880#4 409566594#0 409566594#1 409566594#2 409566594#3 409566594#4 1227603545#2 1227603545#3 1227603545#4 409566596 1228099673#0 1228099673#1 1228099673#2 1228099670 51962372#0 51962372#1 51962372#3"/>
    </vehicle>
    <vehicle id="46" depart="276.00">
        <route edges="51962631#7 51962631#8 409566594#0 409566594#1 409566594#2 409566594#3 409566594#4 1227603545#2 1227603545#3 1227603545#4 1227603545#5 1227603545#6 409566600#0 409566600#1 409566600#2 1442945729 759927383#0 759927383#1 759927383#2 759927383#3 -1228099688 -1227603550#2 -1227603550#1 1228099684 -51962697#2 1190536671"/>
    </vehicle>
    <vehicle id="47" depart="282.00">
        <route edges="-1190551138 -1190515159#1 -1190515159#0 759927383#2 759927383#3 -1228099688 -1227603550#2 -1227603550#1 1228099684 756028261 750471838#0 1189297793"/>
    </vehicle>
    <vehicle id="48" depart="288.00">
        <route edges="894853355 51962700#1 51962700#2 51962700#3 750471838#5 750471837#0 107366880#1 107366880#2 107366880#3 107366880#4 409566594#0 409566594#1 409566594#2 409566594#3 409566594#4 1227603545#2 1227603545#3 1227603545#4 1227603545#5 1227603545#6 409566600#0 409566600#1 409566600#2 1442945729 1442945728"/>
    </vehicle>
    <vehicle id="49" depart="294.00">
        <route edges="756030215 1227603550#0 1227603550#2 1228099688 51962590#0 -51962732 51962729#1"/>
    </vehicle>
    <vehicle id="50" depart="300.00">
        <route edges="-1190515158 -1190515159#0 759927383#2 759927383#3 -1228099688 -1227603550#2 -1227603550#1 1228099684 756028261 -51962716#4 -51962716#3 -51962716#1 51962715 -51962606#1 -51962606#0 51962610#0"/>
    </vehicle>
    <vehicle id="51" depart="306.00">
        <route edges="51962355#1 -51962355#1 409566594#0 409566594#1 409566594#2 409566594#3 409566594#4 1227603545#2 1227603545#3 1227603545#4 409566596 1228099673#0 1228099673#1 1228099673#2 -51962344#2 1227603556#2 409566590#0 409566590#1"/>
    </vehicle>
    <vehicle id="52" depart="312.00">
        <route edges="-51962674#2 51962717#2 -51962581#1 -51962581#0 -1227883882 -1227883867#1 107366880#0 107366880#1 107366880#2 107366880#3 107366880#4 409566594#0 409566594#1 409566594#2 409566594#3 409566594#4 1227603545#2 1227603545#3 1227603545#4 409566596 51962544 51962541#0"/>
    </vehicle>
    <vehicle id="53" depart="318.00">
        <route edges="-51962350#2 107366880#4 409566594#0 409566594#1 409566594#2 409566594#3 409566594#4 1227603545#2 1227603545#3 1227603545#4 1227603545#5 1227603545#6 409566600#0 409566600#1 409566600#2 1442945729 759927383#0 759927383#1 1190515159#0 1190515159#1 1190551138"/>
    </vehicle>
    <vehicle id="54" depart="324.00">
        <route edges="107366880#1 525739383#1 53960645#3 53960645#4 53960645#5 51962708#0 51962708#1 51962699#2 51962699#3 750471838#2 750471838#3 750471838#4"/>
    </vehicle>
    <vehicle id="55" depart="330.00">
        <route edges="51962707#1 -51962707#1 -51962707#0"/>
    </vehicle>
    <vehicle id="56" depart="336.00">
        <route edges="1227603549#1 1227603549#2 409566601#0 409566601#1 1227603545#0 409566592#0 409566592#1 409566592#2 409566592#3 53960645#0 53960645#1 53960645#2 53960645#3 750471837#0 750471837#1 750471837#2 -51962631#4"/>
    </vehicle>
    <vehicle id="57" depart="342.00">
        <route edges="525739383#0 525739383#1 53960645#3 750471837#0 750471837#1 750471837#2 51962631#5 51962631#6 525739382"/>
    </vehicle>
    <vehicle id="58" depart="348.00">
        <route edges="-51962702#1 -51962705#1 -51962705#0 -51962703#1 -1189297793 750471838#1 750471838#2 750471838#3 750471838#4 750471838#5 750471837#0 750471837#1 750471837#2 -51962631#4 -51962631#3 51962389"/>
    </vehicle>
    <vehicle id="59" depart="354.00">
        <route edges="409566594#3 409566594#4 1227603545#2 1227603545#3 1227603545#4 1227603545#5 1227603545#6 1227603545#7 1227603545#0 409566592#0 409566592#1 409566592#2 409566592#3 53960645#0 53960645#1 53960645#2 53960645#3 53960645#4 53960645#5 53960645#6 1227883882 51962581#0 51962581#1 -51962717#2 -51962717#1 -51962717#0 -51962606#2"/>
    </vehicle>
    <vehicle id="60" depart="360.00">
        <route edges="51962610#0 894853410 -51962581#2 -51962581#1 -51962581#0 -1227883882 -1227883867#1 107366880#0 107366880#1 107366880#2 107366880#3 107366880#4 409566594#0 409566594#1 409566594#2 409566594#3 409566594#4 1227603545#2 1227603545#3 1227603545#4 409566596 1228099673#0 1228099673#1 1228099673#2 -51962344#2 1227603556#2 409566590#0 409566590#1 409566590#2"/>
    </vehicle>
    <vehicle id="61" depart="366.00">
        <route edges="51962631#1 51962631#3 51962631#4 51962631#5 525739383#0 107366880#2 107366880#3 107366880#4 409566594#0 409566594#1 409566594#2 409566594#3 409566594#4 1227603545#2 1227603545#3 1227603545#4 1227603545#5 1227603545#6 409566600#0 409566600#1 409566600#2 1442945729"/>
    </vehicle>
    <vehicle id="62" depart="372.00">
        <route edges="-1189297793 1189297793 51962703#1 51962703#2 -1228099685#0 -1228099684 -756030215"/>
    </vehicle>
    <vehicle id="63" depart="378.00">
        <route edges="-1190515159#2 -1190515159#1 -1190515159#0 759927383#2 759927383#3 -1228099688 -1227603550#2 -1227603550#1 1228099684 756028261 750471838#0 750471838#1 750471838#2 750471838#3 750471838#4 750471838#5 750471837#0 750471837#1 750471837#2 750471837#3"/>
    </vehicle>
    <vehicle id="64" depart="384.00">
        <route edges="51962708#1 -51962699#1 -51962699#0 559245100#1 51962715"/>
    </vehicle>
    <vehicle id="65" depart="390.00">
        <route edges="-51962702#1 51962705#2 -51962701 1227603549#2 409566601#0 409566601#1 1227603545#0 409566592#0 409566592#1 409566592#2 409566592#3 53960645#0 -51962350#0"/>
    </vehicle>
    <vehicle id="66" depart="396.00">
        <route edges="51962708#0 51962708#1 51962708#2 51962716#2 51962716#4 750471838#0 750471838#1"/>
    </vehicle>
    <vehicle id="67" depart="402.00">
        <route edges="-1228099684 1227603550#0 1227603550#2 1228099687#0 1228099687#1 1227603549#0 1227603549#1 1227603549#2 409566601#0 409566601#1 1227603545#0 1227603545#1 1227603545#2 1227603545#3 1227603545#4 409566596 1228099673#0"/>
    </vehicle>
    <vehicle id="68" depart="408.00">
        <route edges="-1227603550#1 1228099684 756028261 -51962716#4 -51962716#3 -51962708#2 51962699#2"/>
    </vehicle>
    <vehicle id="69" depart="414.00">
        <route edges="51962610#1 -51962581#4 -51962581#3 -51962581#2 -51962581#1"/>
    </vehicle>
    <vehicle id="70" depart="420.00">
        <route edges="107627052 1442945728 409566601#0 409566601#1 1227603545#0 409566592#0 409566592#1 409566592#2 409566592#3"/>
    </vehicle>
    <vehicle id="71" depart="426.00">
        <route edges="-51962674#1 51962595#2 -51962581#3 -51962581#2 -51962581#1 -51962581#0 -1227883882 -1227883867#1 107366880#0 750471837#1 750471837#2 51962631#5 51962631#6 525739382"/>
    </vehicle>
    <vehicle id="72" depart="432.00">
        <route edges="-894853346 1227603551#2 1228099684 756028261 750471838#0 750471838#1 -51962699#3 -51962699#2"/>
    </vehicle>
    <vehicle id="73" depart="438.00">
        <route edges="1227883882 -1227883882 -1227883867#1 107366880#0 750471837#1 750471837#2 -51962631#4 51962631#4"/>
    </vehicle>
    <vehicle id="74" depart="444.00">
        <route edges="-51962590#2 -51962590#1 -1228099688 -1227603550#2 -1227603550#1 1228099684 756028261 -756028261"/>
    </vehicle>
    <vehicle id="75" depart="450.00">
        <route edges="894853355 51962700#1 51962700#2 51962700#3 750471838#5 750471837#0 107366880#1 107366880#2 107366880#3 107366880#4 409566594#0 409566594#1 409566594#2 409566594#3 409566594#4 1227603545#2 1227603545#3 1227603545#4 409566596 51962544 51962541#0 -51962546 51962546"/>
    </vehicle>
    <vehicle id="76" depart="456.00">
        <route edges="-894853354 1228099687#1 1227603549#0 1227603549#1 1227603549#2 409566601#0 409566601#1 1227603545#0 409566592#0 409566592#1 409566592#2 409566592#3 53960645#0 53960645#1 53960645#2 53960645#3 53960645#4 53960645#5 53960645#6 -1227883867#1 -1227883867#0 1340532650 1189099248#3 1189099248#4 1189099248#5 1340532652"/>
    </vehicle>
    <vehicle id="77" depart="462.00">
        <route edges="-51962355#0 -51962631#7 -51962631#6 525739383#0 525739383#1 53960645#3 53960645#4 -51962713 51962700#3 -51962700#3"/>
    </vehicle>
    <vehicle id="78" depart="468.00">
        <route edges="-51962709 759908639 1227603549#2 1227603548 1093918316 -51962372#3 -51962722 51962344#1"/>
    </vehicle>
    <vehicle id="79" depart="474.00">
        <route edges="-51962606#4 -51962606#3 -51962606#2 -51962715 51962716#0 -51962708#2 -51962708#1 -51962700#1"/>
    </vehicle>
    <vehicle id="80" depart="480.00">
        <route edges="-1227603550#2 -1227603550#1 1228099684 756028261 750471838#0 750471838#1 750471838#2 750471838#3 750471838#4 750471838#5 750471837#0 750471837#1 750471837#2 750471837#3 51962387#0"/>
    </vehicle>
    <vehicle id="81" depart="486.00">
        <route edges="-51962606#4 -51962606#3 -51962606#2 -51962606#1 -51962606#0 -51962581#0 -1227883882 -1227883867#1 107366880#0 107366880#1 107366880#2 107366880#3 -51962350#1 53960645#1 53960645#2"/>
    </vehicle>
    <vehicle id="82" depart="492.00">
        <route edges="51962705#2 -51962701 1227603549#2 409566601#0 409566601#1 1227603545#0 409566592#0 409566592#1 409566592#2 409566592#3 53960645#0 53960645#1 -51962351"/>
    </vehicle>
    <vehicle id="83" depart="498.00">
        <route edges="-51962629 -51962610#0 -51962581#0 51962581#0"/>
    </vehicle>
    <vehicle id="84" depart="504.00">
        <route edges="-51962606#1 -51962606#0 51962581#1 51962581#2 -51962581#2"/>
    </vehicle>
    <vehicle id="85" depart="510.00">
        <route edges="53960645#5 53960645#6 -1227883867#1 107366880#0 107366880#1 107366880#2 107366880#3 107366880#4 409566594#0 409566594#1 409566594#2 409566594#3 409566594#4 1227603545#2 1227603545#3 1227603545#4 1227603545#5 1227603545#6 409566600#0 409566600#1"/>
    </vehicle>
    <vehicle id="86" depart="516.00">
        <route edges="107627052 759927383#0 759908639 51962701 -51962705#2 51962702#1"/>
    </vehicle>
    <vehicle id="87" depart="522.00">
        <route edges="51962697#0 51962697#2 756028261 -51962716#4 -51962716#3 -51962716#1 51962715 -51962659#2 -51962659#1"/>
    </vehicle>
    <vehicle id="88" depart="528.00">
        <route edges="-1228099688 -1227603550#2 -1227603550#1 -1227603551#2 -1227603551#1 1190536688"/>
    </vehicle>
    <vehicle id="89" depart="534.00">
        <route edges="-894853346 1227603551#2 1227603550#0 1227603550#2 1228099687#0 1228099687#1 1227603549#0 1227603549#1 1227603549#2 1227603548 1093918316 -51962372#3 -51962372#2 -51962372#0 107644626 51962576#1 1227603556#0"/>
    </vehicle>
    <vehicle id="90" depart="540.00">
        <route edges="51962576#0 51962576#1 1227603556#0 1227603556#1 1227603556#2 409566590#0 409566590#1 409566590#2 1227603545#6 1227603545#7 1227603545#0 409566592#0 409566592#1 409566592#2 409566592#3 53960645#0 53960645#1 53960645#2 53960645#3 53960645#4 53960645#5 53960645#6 1227883882 51962581#0 51962581#1 51962581#2"/>
    </vehicle>
    <vehicle id="91" depart="546.00">
        <route edges="759908639 1227603549#2 1227603548 1093918316 -51962372#3 -51962372#2 -51962372#0"/>
    </vehicle>
    <vehicle id="92" depart="552.00">
        <route edges="-525739739 53960645#3 750471837#0 107366880#1 107366880#2"/>
    </vehicle>
    <vehicle id="93" depart="558.00">
        <route edges="51962707#0 51962707#1 -1228099685#1 51962703#3 -51962703#3"/>
    </vehicle>
    <vehicle id="94" depart="564.00">
        <route edges="-51962590#1 -1228099688 1228099687#0 1228099687#1 1227603549#0 1227603549#1 1227603549#2 1227603548"/>
    </vehicle>
    <vehicle id="95" depart="570.00">
        <route edges="-894853346 1227603551#2 1228099684 756028261 750471838#0 750471838#1 750471838#2 750471838#3 750471838#4 750471838#5 53960645#4 53960645#5 53960645#6 -1227883867#1 -1227883867#0 1340532650 1189099248#3 1189099248#4 1189099248#5 1189099248#6 1189099248#7 -51962712"/>
    </vehicle>
    <vehicle id="96" depart="576.00">
        <route edges="-51962631#6 525739383#0 525739383#1 53960645#3 750471837#0"/>
    </vehicle>
    <vehicle id="97" depart="582.00">
        <route edges="-894853354 1228099687#1 1227603549#0 1227603549#1 -759908639 759927383#1 759927383#2 51962729#0 51962729#1"/>
    </vehicle>
    <vehicle id="98" depart="588.00">
        <route edges="1228099673#2 -51962344#2 -51962344#1"/>
    </vehicle>
    <vehicle id="99" depart="594.00">
        <route edges="894853410 -51962581#2 -51962581#1 51962606#0 51962606#1 -51962715 51962716#0"/>
    </vehicle>
    <vehicle id="100" depart="600.00">
        <route edges="756028261 750471838#0 750471838#1 750471838#2 750471838#3 750471838#4 750471838#5 750471837#0 750471837#1 750471837#2"/>
    </vehicle>
    <vehicle id="101" depart="606.00">
        <route edges="51962703#1 -51962703#1 -1189297793 750471838#1 750471838#2 750471838#3 750471838#4 750471838#5 750471837#0 750471837#1 750471837#2 -51962631#4 -51962631#3 -51962631#2 -51962631#0"/>
    </vehicle>
    <vehicle id="102" depart="612.00">
        <route edges="1118219312 409566601#1 1227603545#0 409566592#0 409566592#1 409566592#2 409566592#3 53960645#0 53960645#1 53960645#2 53960645#3 53960645#4 53960645#5 51962708#0 51962708#1 51962699#2 -51962699#2"/>
    </vehicle>
    <vehicle id="103" depart="618.00">
        <route edges="-525739382 -51962631#6 525739383#0 107366880#2 107366880#3 -51962350#1 -51962350#0"/>
    </vehicle>
    <vehicle id="104" depart="624.00">
        <route edges="-51962729#2 -51962729#0 759927383#3 -1228099688 1228099687#0 894853354"/>
    </vehicle>
    <vehicle id="105" depart="630.00">
        <route edges="-51962674#1 -51962595#1 51962659#1 51962659#2 -51962715 51962716#0 51962716#2 51962716#4 750471838#0 1189297793 51962703#1 51962705#0 51962705#1 51962702#1"/>
    </vehicle>
    <vehicle id="106" depart="636.00">
        <route edges="107366880#2 107366880#3 107366880#4 409566594#0 409566594#1 409566594#2 409566594#3 409566594#4 1227603545#2 1227603545#3 1227603545#4 1227603545#5 1227603545#6 409566600#0 409566600#1 409566600#2 1442945729 759927383#0 759927383#1 759927383#2 759927383#3 -1228099688 -1227603550#2 -1227603550#1 -1227603551#2 -1227603551#1 1190536688"/>
    </vehicle>
    <vehicle id="107" depart="642.00">
        <route edges="750471838#1 -51962699#3 -51962699#2 -51962699#1 894853355"/>
    </vehicle>
    <vehicle id="108" depart="648.00">
        <route edges="1228099685#0 -1228099685#0 -51962697#2 -51962697#1 51962606#4"/>
    </vehicle>
    <vehicle id="109" depart="654.00">
        <route edges="-51962544 1228099673#0 1228099673#1 1228099673#2 -51962344#2 1227603556#2 409566590#0 409566590#1 409566590#2 1227603545#6 1227603545#7 1227603545#0 409566592#0 409566592#1 409566592#2 409566592#3 53960645#0 53960645#1 53960645#2 53960645#3 53960645#4 53960645#5 53960645#6 1227883882 51962581#0 51962581#1 -51962717#2 -51962717#1"/>
    </vehicle>
    <vehicle id="110" depart="660.00">
        <route edges="756028261 -756028261 1228099685#0 1228099685#1 1228099685#2 1227603549#0 1227603549#1 1227603549#2 409566601#0 409566601#1"/>
    </vehicle>
    <vehicle id="111" depart="666.00">
        <route edges="1228099669 -51962579 51962576#0 51962576#1 1227603556#0 1227603556#1 1227603556#2 409566590#0 409566590#1 409566590#2 1227603545#6 1227603545#7 1227603545#0 409566592#0 409566592#1 409566592#2 409566592#3 53960645#0 53960645#1 53960645#2 53960645#3 53960645#4 53960645#5 53960645#6 1227883882 51962581#0 51962581#1 51962581#2 51962581#3 -51962595#2 51962674#1"/>
    </vehicle>
    <vehicle id="112" depart="672.00">
        <route edges="-1190551138 -1190515159#1 -1190515159#0 759927383#2 759927383#3 -1228099688 1228099687#0 1228099687#1 1227603549#0 1227603549#1 1227603549#2 409566601#0 409566601#1 1227603545#0 409566592#0 409566592#1 409566592#2 409566592#3 53960645#0 53960645#1 53960645#2 53960645#3 53960645#4 53960645#5 53960645#6 -1227883867#1 -1227883867#0 1340532650 1189099248#3 482053591"/>
    </vehicle>
    <vehicle id="113" depart="678.00">
        <route edges="1227603549#2 1227603548 409566600#2 1442945729 759927383#0 759927383#1 759927383#2 51962729#0"/>
    </vehicle>
    <vehicle id="114" depart="684.00">
        <route edges="-51962544 1228099673#0 1228099673#1 1228099673#2 1228099670 51962372#0 51962372#1 51962372#3 1093918317 1442945729 759927383#0 759908639"/>
    </vehicle>
    <vehicle id="115" depart="690.00">
        <route edges="-1227883867#0 1227883867#0 107366880#0 107366880#1 107366880#2 107366880#3 107366880#4 -51962355#0 -51962631#7"/>
    </vehicle>
    <vehicle id="116" depart="696.00">
        <route edges="409566592#1 409566592#2 409566592#3 53960645#0 53960645#1 53960645#2 53960645#3 53960645#4 53960645#5 53960645#6 1227883882 51962581#0 51962581#1 51962581#2 51962581#3"/>
    </vehicle>
    <vehicle id="117" depart="702.00">
        <route edges="-51962610#0 -51962581#0 -1227883882 -1227883867#1 107366880#0 107366880#1 107366880#2 107366880#3 107366880#4 409566594#0 409566594#1 409566594#2 409566594#3 409566594#4 1227603545#2 1227603545#3 1227603545#4 409566596 1228099673#0 1228099673#1 -51962572"/>
    </vehicle>
    <vehicle id="118" depart="708.00">
        <route edges="51962715 51962606#2 51962606#3 51962697#0 51962697#2 1228099685#0 -51962703#2"/>
    </vehicle>
    <vehicle id="119" depart="714.00">
        <route edges="409566592#1 409566592#2 409566592#3 51962355#2"/>
    </vehicle>
    <vehicle id="120" depart="720.00">
        <route edges="-759908639 759908639 1227603549#2 409566601#0 409566601#1 1227603545#0 409566592#0 409566592#1 409566592#2 409566592#3 53960645#0 53960645#1 53960645#2 53960645#3 53960645#4 53960645#5 53960645#6 -1227883867#1 -1227883867#0 1340532650 1189099248#3 482053591"/>
    </vehicle>
    <vehicle id="121" depart="726.00">
        <route edges="1227603551#1 1227603551#2 1228099684 756028261 750471838#0 750471838#1 750471838#2 750471838#3 750471838#4 750471838#5 750471837#0 750471837#1 750471837#2 750471837#3 750471837#4"/>
    </vehicle>
    <vehicle id="122" depart="732.00">
        <route edges="-51962590#2 -51962590#1 -1228099688 -1227603550#2 -1227603550#1 1228099684 -51962697#2 -51962697#1 51962606#4"/>
    </vehicle>
    <vehicle id="123" depart="738.00">
        <route edges="-51962631#2 51962368 1189099248#7 1189099248#1 1340532651 1227883867#0 107366880#0 107366880#1 107366880#2 107366880#3 107366880#4 409566594#0 409566594#1 409566594#2 409566594#3 409566594#4 1227603545#2 1227603545#3 1227603545#4 1227603545#5 1227603545#6 409566600#0 409566600#1 409566600#2 1442945729 759927383#0 759927383#1 1190515159#0"/>
    </vehicle>
    <vehicle id="124" depart="744.00">
        <route edges="51962352 525739383#0 525739383#1 53960645#3 53960645#4 53960645#5 51962708#0 51962708#1 51962699#2 -51962718"/>
    </vehicle>
    <vehicle id="125" depart="750.00">
        <route edges="-51962703#3 -1228099685#0 -51962697#2 -51962697#1 51962697#0"/>
    </vehicle>
    <vehicle id="126" depart="756.00">
        <route edges="-1227603550#2 -1227603550#1 1227603550#0"/>
    </vehicle>