<?xml version='1.0' encoding='utf-8'?>
<routes>
    <vType id="car" accel="2.6" decel="4.5" maxSpeed="15" />
    <trip id="veh_0" type="car" depart="1" from="1228099685#2" to="1227603549#2" />
    <trip id="veh_1" type="car" depart="2" from="-51962659#0" to="-51962610#0" />
    <trip id="veh_2" type="car" depart="4" from="-51962631#3" to="107627051" />
    <trip id="veh_3" type="car" depart="5" from="-1228099685#1" to="-894853354" />
    <trip id="veh_4" type="car" depart="13" from="51962703#3" to="51962572" />
    <trip id="veh_5" type="car" depart="15" from="51962546" to="-51962659#0" />
    <trip id="veh_6" type="car" depart="16" from="-51962631#5" to="51962606#0" />
    <trip id="veh_7" type="car" depart="30" from="1189297793" to="409566596" />
    <trip id="veh_8" type="car" depart="37" from="51962595#1" to="107366880#3" />
    <trip id="veh_9" type="car" depart="41" from="-51962716#3" to="1227603549#2" />
    <trip id="veh_10" type="car" depart="42" from="51962631#6" to="1228099685#0" />
    <trip id="veh_11" type="car" depart="49" from="-51962344#1" to="51962355#2" />
    <trip id="veh_12" type="car" depart="51" from="51962355#2" to="107366880#4" />
    <trip id="veh_13" type="car" depart="56" from="1227603550#0" to="1228099670" />
    <trip id="veh_14" type="car" depart="62" from="750471837#2" to="-51962631#2" />
    <trip id="veh_15" type="car" depart="65" from="-51962708#2" to="51962703#3" />
    <trip id="veh_16" type="car" depart="70" from="-1190551138" to="-51962697#1" />
    <trip id="veh_17" type="car" depart="73" from="51962572" to="-51962674#2" />
    <trip id="veh_18" type="car" depart="75" from="-1190515158" to="1228099670" />
    <trip id="veh_19" type="car" depart="79" from="409566601#0" to="750471838#5" />
    <trip id="veh_20" type="car" depart="81" from="-51962709" to="-1189297793" />
    <trip id="veh_21" type="car" depart="84" from="51962606#2" to="51962350#0" />
    <trip id="veh_22" type="car" depart="85" from="1227603549#0" to="-51962606#1" />
    <trip id="veh_23" type="car" depart="86" from="53960645#5" to="-51962590#2" />
    <trip id="veh_24" type="car" depart="89" from="53960645#0" to="-51962713" />
    <trip id="veh_25" type="car" depart="90" from="51962703#3" to="107366880#4" />
    <trip id="veh_26" type="car" depart="100" from="-51962581#1" to="51962557" />
    <trip id="veh_27" type="car" depart="101" from="1190515158" to="107627052" />
    <trip id="veh_28" type="car" depart="102" from="-51962572" to="1190515158" />
    <trip id="veh_29" type="car" depart="103" from="-51962344#1" to="51962541#0" />
    <trip id="veh_30" type="car" depart="104" from="1190551138" to="1228099687#1" />
    <trip id="veh_31" type="car" depart="106" from="-51962700#3" to="525739739" />
    <trip id="veh_32" type="car" depart="107" from="525739739" to="51962700#1" />
    <trip id="veh_33" type="car" depart="108" from="-51962631#5" to="51962707#0" />
    <trip id="veh_34" type="car" depart="112" from="-51962631#6" to="-51962579" />
    <trip id="veh_35" type="car" depart="116" from="-525739382" to="51962716#0" />
    <trip id="veh_36" type="car" depart="117" from="-51962722" to="1228099687#1" />
    <trip id="veh_37" type="car" depart="120" from="-51962631#6" to="-51962387#0" />
    <trip id="veh_38" type="car" depart="123" from="-51962631#3" to="1190551138" />
    <trip id="veh_39" type="car" depart="124" from="53960645#5" to="53960645#3" />
    <trip id="veh_40" type="car" depart="125" from="51962699#2" to="-51962572" />
    <trip id="veh_41" type="car" depart="126" from="-1190515158" to="51962674#1" />
    <trip id="veh_42" type="car" depart="127" from="51962717#1" to="1392385901" />
    <trip id="veh_43" type="car" depart="133" from="409566600#1" to="107627051" />
    <trip id="veh_44" type="car" depart="138" from="53960645#1" to="750471838#3" />
    <trip id="veh_45" type="car" depart="141" from="756028261" to="-51962606#2" />
    <trip id="veh_46" type="car" depart="143" from="-51962590#1" to="1190536688" />
    <trip id="veh_47" type="car" depart="148" from="-51962606#2" to="51962703#1" />
    <trip id="veh_48" type="car" depart="152" from="51962352" to="1227603545#5" />
    <trip id="veh_49" type="car" depart="153" from="-51962700#3" to="409566601#1" />
    <trip id="veh_50" type="car" depart="157" from="-51962631#7" to="-51962595#1" />
    <trip id="veh_51" type="car" depart="160" from="51962581#4" to="-51962590#2" />
    <trip id="veh_52" type="car" depart="163" from="482053591" to="-1190536688" />
    <trip id="veh_53" type="car" depart="167" from="-51962702#0" to="1228099673#1" />
    <trip id="veh_54" type="car" depart="168" from="-51962659#2" to="-51962708#0" />
    <trip id="veh_55" type="car" depart="169" from="107366880#3" to="51962576#0" />
    <trip id="veh_56" type="car" depart="170" from="1228099673#1" to="750471838#4" />
    <trip id="veh_57" type="car" depart="174" from="51962703#3" to="1228099687#0" />
    <trip id="veh_58" type="car" depart="175" from="51962541#1" to="-51962700#2" />
    <trip id="veh_59" type="car" depart="177" from="51962712" to="51962705#1" />
    <trip id="veh_60" type="car" depart="179" from="-51962705#2" to="-51962350#2" />
    <trip id="veh_61" type="car" depart="182" from="-51962700#1" to="-51962355#0" />
    <trip id="veh_62" type="car" depart="188" from="1227603550#2" to="-51962659#0" />
    <trip id="veh_63" type="car" depart="195" from="-51962712" to="-51962717#1" />
    <trip id="veh_64" type="car" depart="197" from="51962541#1" to="51962700#3" />
    <trip id="veh_65" type="car" depart="201" from="-51962674#0" to="51962631#7" />
    <trip id="veh_66" type="car" depart="204" from="51962722" to="51962590#0" />
    <trip id="veh_67" type="car" depart="207" from="-1228099685#0" to="-525739739" />
    <trip id="veh_68" type="car" depart="210" from="1228099687#1" to="51962590#0" />
    <trip id="veh_69" type="car" depart="216" from="1228099669" to="-51962717#2" />
    <trip id="veh_70" type="car" depart="219" from="51962708#0" to="51962579" />
    <trip id="veh_71" type="car" depart="226" from="51962708#1" to="-1189297793" />
    <trip id="veh_72" type="car" depart="232" from="51962707#0" to="-51962590#2" />
    <trip id="veh_73" type="car" depart="237" from="409566601#1" to="750471838#5" />
    <trip id="veh_74" type="car" depart="242" from="51962703#2" to="51962631#6" />
    <trip id="veh_75" type="car" depart="248" from="1392385901" to="107366880#3" />
    <trip id="veh_76" type="car" depart="254" from="525739739" to="-51962716#1" />
    <trip id="veh_77" type="car" depart="259" from="1190536688" to="51962350#2" />
    <trip id="veh_78" type="car" depart="260" from="-894853354" to="-51962705#1" />
    <trip id="veh_79" type="car" depart="261" from="1227603549#2" to="53960645#0" />
    <trip id="veh_80" type="car" depart="270" from="-1190515159#1" to="-51962659#2" />
    <trip id="veh_81" type="car" depart="272" from="894853354" to="51962729#1" />
    <trip id="veh_82" type="car" depart="273" from="1227603550#2" to="-51962699#2" />
    <trip id="veh_83" type="car" depart="289" from="1227603550#0" to="1228099687#0" />
    <trip id="veh_84" type="car" depart="293" from="-51962606#0" to="1392385901" />
    <trip id="veh_85" type="car" depart="294" from="51962544" to="51962372#1" />
    <trip id="veh_86" type="car" depart="296" from="-51962707#0" to="1190515159#1" />
    <trip id="veh_87" type="car" depart="298" from="107627046#3" to="-51962581#1" />
    <trip id="veh_88" type="car" depart="302" from="51962703#2" to="51962674#1" />
    <trip id="veh_89" type="car" depart="309" from="51962590#2" to="409566601#0" />
    <trip id="veh_90" type="car" depart="317" from="107627052" to="1228099685#1" />
    <trip id="veh_91" type="car" depart="319" from="51962546" to="51962700#0" />
    <trip id="veh_92" type="car" depart="328" from="51962705#2" to="-51962702#1" />
    <trip id="veh_93" type="car" depart="330" from="1228099669" to="51962631#6" />
    <trip id="veh_94" type="car" depart="341" from="51962590#0" to="1118219312" />
    <trip id="veh_95" type="car" depart="347" from="-1227883882" to="-51962707#1" />
    <trip id="veh_96" type="car" depart="348" from="525739739" to="-51962697#1" />
    <trip id="veh_97" type="car" depart="350" from="1227603556#2" to="51962610#0" />
    <trip id="veh_98" type="car" depart="351" from="-51962697#1" to="-51962712" />
    <trip id="veh_99" type="car" depart="353" from="-1228099685#1" to="51962351" />
    <trip id="veh_100" type="car" depart="358" from="1227603549#1" to="-51962659#0" />
    <trip id="veh_101" type="car" depart="365" from="51962705#2" to="51962610#1" />
    <trip id="veh_102" type="car" depart="366" from="51962572" to="-1227603550#1" />
    <trip id="veh_103" type="car" depart="369" from="51962606#2" to="51962722" />
    <trip id="veh_104" type="car" depart="374" from="53960645#4" to="51962732" />
    <trip id="veh_105" type="car" depart="377" from="1227603549#2" to="-51962610#0" />
    <trip id="veh_106" type="car" depart="388" from="1340532650" to="1228099687#0" />
    <trip id="veh_107" type="car" depart="391" from="1227603549#0" to="51962700#1" />
    <trip id="veh_108" type="car" depart="398" from="107644626" to="51962700#0" />
    <trip id="veh_109" type="car" depart="408" from="1227603551#1" to="1190515159#1" />
    <trip id="veh_110" type="car" depart="409" from="-525739739" to="51962355#2" />
    <trip id="veh_111" type="car" depart="410" from="-51962729#0" to="-525739739" />
    <trip id="veh_112" type="car" depart="411" from="53960645#4" to="1228099687#0" />
    <trip id="veh_113" type="car" depart="416" from="-749930242" to="409566600#1" />
    <trip id="veh_114" type="car" depart="417" from="-51962717#2" to="482053591" />
    <trip id="veh_115" type="car" depart="418" from="-51962700#0" to="1228099685#2" />
    <trip id="veh_116" type="car" depart="419" from="-51962544" to="409566598" />
    <trip id="veh_117" type="car" depart="421" from="750471837#1" to="-51962659#0" />
    <trip id="veh_118" type="car" depart="426" from="-51962388" to="1227603551#2" />
    <trip id="veh_119" type="car" depart="431" from="-51962544" to="-51962707#0" />
    <trip id="veh_120" type="car" depart="432" from="51962344#0" to="-51962606#4" />
    <trip id="veh_121" type="car" depart="434" from="51962703#0" to="1189099248#7" />
    <trip id="veh_122" type="car" depart="442" from="-51962631#6" to="107366880#2" />
    <trip id="veh_123" type="car" depart="444" from="-51962606#2" to="-51962708#1" />
    <trip id="veh_124" type="car" depart="445" from="-51962595#2" to="-51962708#1" />
    <trip id="veh_125" type="car" depart="446" from="51962716#2" to="525739383#0" />
    <trip id="veh_126" type="car" depart="448" from="1340532651" to="51962717#1" />
    <trip id="veh_127" type="car" depart="449" from="1190536671" to="1228099673#1" />
    <trip id="veh_128" type="car" depart="459" from="-51962713" to="51962350#0" />
    <trip id="veh_129" type="car" depart="467" from="750471837#2" to="51962708#2" />
    <trip id="veh_130" type="car" depart="468" from="-51962352" to="51962707#1" />
    <trip id="veh_131" type="car" depart="471" from="1190515158" to="-1227883882" />
    <trip id="veh_132" type="car" depart="474" from="-51962352" to="-51962717#0" />
    <trip id="veh_133" type="car" depart="478" from="51962708#1" to="750471837#1" />
    <trip id="veh_134" type="car" depart="483" from="-51962709" to="51962389" />
    <trip id="veh_135" type="car" depart="489" from="-51962629" to="51962355#2" />
    <trip id="veh_136" type="car" depart="490" from="-51962697#2" to="51962699#3" />
    <trip id="veh_137" type="car" depart="493" from="51962729#0" to="51962702#0" />
    <trip id="veh_138" type="car" depart="494" from="894853354" to="51962606#2" />
    <trip id="veh_139" type="car" depart="498" from="1228099673#2" to="-51962700#3" />
    <trip id="veh_140" type="car" depart="502" from="1227603545#5" to="-51962708#2" />
    <trip id="veh_141" type="car" depart="504" from="51962700#1" to="-51962631#3" />
    <trip id="veh_142" type="car" depart="505" from="-51962697#1" to="51962729#0" />
    <trip id="veh_143" type="car" depart="508" from="409566598" to="756028261" />
    <trip id="veh_144" type="car" depart="514" from="-525739382" to="756028261" />
    <trip id="veh_145" type="car" depart="516" from="-51962590#2" to="1228099687#0" />
    <trip id="veh_146" type="car" depart="521" from="-1190515158" to="1340532651" />
    <trip id="veh_147" type="car" depart="535" from="51962631#8" to="1190536671" />
    <trip id="veh_148" type="car" depart="545" from="-51962350#2" to="-51962700#0" />
    <trip id="veh_149" type="car" depart="556" from="525739383#0" to="1228099673#1" />
    <trip id="veh_150" type="car" depart="568" from="-51962590#2" to="1190536688" />
    <trip id="veh_151" type="car" depart="574" from="-51962631#7" to="51962713" />
    <trip id="veh_152" type="car" depart="575" from="409566601#1" to="-1228099685#2" />
    <trip id="veh_153" type="car" depart="576" from="-51962546" to="409566600#0" />
    <trip id="veh_154" type="car" depart="579" from="51962700#3" to="-51962718" />
    <trip id="veh_155" type="car" depart="580" from="-51962606#1" to="51962631#7" />
    <trip id="veh_156" type="car" depart="582" from="-51962703#3" to="1190515159#1" />
    <trip id="veh_157" type="car" depart="584" from="1227603556#0" to="-1190536688" />
    <trip id="veh_158" type="car" depart="589" from="51962579" to="409566601#1" />
    <trip id="veh_159" type="car" depart="592" from="482053591" to="-894853354" />
    <trip id="veh_160" type="car" depart="595" from="51962631#7" to="51962606#0" />
    <trip id="veh_161" type="car" depart="601" from="-51962387#0" to="750471837#4" />
    <trip id="veh_162" type="car" depart="605" from="51962590#2" to="107627052" />
    <trip id="veh_163" type="car" depart="619" from="409566600#1" to="51962388" />
    <trip id="veh_164" type="car" depart="621" from="-51962700#3" to="51962606#4" />
    <trip id="veh_165" type="car" depart="625" from="53960645#3" to="409566600#1" />
    <trip id="veh_166" type="car" depart="628" from="-51962595#2" to="-51962703#2" />
    <trip id="veh_167" type="car" depart="630" from="51962699#0" to="51962606#4" />
    <trip id="veh_168" type="car" depart="631" from="51962697#2" to="-1227603550#2" />
    <trip id="veh_169" type="car" depart="632" from="-51962699#3" to="51962717#1" />
    <trip id="veh_170" type="car" depart="635" from="51962631#7" to="51962631#1" />
    <trip id="veh_171" type="car" depart="636" from="1190536671" to="525739738#1" />
    <trip id="veh_172" type="car" depart="637" from="51962388" to="107644626" />
    <trip id="veh_173" type="car" depart="643" from="-51962372#2" to="-51962351" />
    <trip id="veh_174" type="car" depart="646" from="-51962702#1" to="51962659#2" />
    <trip id="veh_175" type="car" depart="653" from="51962702#1" to="-51962631#6" />
    <trip id="veh_176" type="car" depart="659" from="51962713" to="1190536688" />
    <trip id="veh_177" type="car" depart="661" from="51962610#0" to="51962606#0" />
    <trip id="veh_178" type="car" depart="662" from="1228099687#0" to="-525739382" />
    <trip id="veh_179" type="car" depart="666" from="107366880#4" to="-1227883882" />
    <trip id="veh_180" type="car" depart="667" from="51962541#1" to="1227603549#1" />
    <trip id="veh_181" type="car" depart="670" from="107366880#2" to="107627047" />
    <trip id="veh_182" type="car" depart="672" from="-51962705#1" to="-1190515158" />
    <trip id="veh_183" type="car" depart="673" from="-51962705#0" to="-51962700#2" />
    <trip id="veh_184" type="car" depart="676" from="-1228099685#1" to="-51962700#3" />
    <trip id="veh_185" type="car" depart="677" from="1190551138" to="51962387#0" />
    <trip id="veh_186" type="car" depart="678" from="1228099673#1" to="-51962388" />
    <trip id="veh_187" type="car" depart="679" from="51962703#2" to="-51962697#1" />
    <trip id="veh_188" type="car" depart="684" from="750471838#3" to="107644626" />
    <trip id="veh_189" type="car" depart="686" from="894853355" to="482053591" />
    <trip id="veh_190" type="car" depart="689" from="53960645#2" to="51962699#2" />
    <trip id="veh_191" type="car" depart="691" from="51962713" to="-51962595#1" />
    <trip id="veh_192" type="car" depart="694" from="-51962700#0" to="1228099685#2" />
    <trip id="veh_193" type="car" depart="704" from="107627047" to="51962707#0" />
    <trip id="veh_194" type="car" depart="706" from="51962557" to="51962717#1" />
    <trip id="veh_195" type="car" depart="711" from="-51962707#1" to="525739739" />
    <trip id="veh_196" type="car" depart="712" from="-51962606#4" to="-51962631#3" />
    <trip id="veh_197" type="car" depart="716" from="-51962572" to="51962389" />
    <trip id="veh_198" type="car" depart="723" from="364027516" to="51962351" />
    <trip id="veh_199" type="car" depart="726" from="53960645#3" to="1118219312" />
    <trip id="veh_200" type="car" depart="730" from="1228099687#1" to="1189099248#7" />
    <trip id="veh_201" type="car" depart="737" from="1228099673#2" to="-1228099685#2" />
    <trip id="veh_202" type="car" depart="738" from="51962350#2" to="51962557" />
    <trip id="veh_203" type="car" depart="740" from="-51962703#3" to="51962699#2" />
    <trip id="veh_204" type="car" depart="741" from="-51962344#0" to="-51962631#2" />
    <trip id="veh_205" type="car" depart="743" from="51962703#1" to="51962717#1" />
    <trip id="veh_206" type="car" depart="749" from="-51962388" to="-51962708#0" />
    <trip id="veh_207" type="car" depart="750" from="-51962387#0" to="-51962606#2" />
    <trip id="veh_208" type="car" depart="751" from="51962705#0" to="53960645#5" />
    <trip id="veh_209" type="car" depart="754" from="759927383#1" to="-51962697#1" />
    <trip id="veh_210" type="car" depart="756" from="53960645#6" to="51962350#0" />
    <trip id="veh_211" type="car" depart="757" from="51962697#2" to="-51962546" />
    <trip id="veh_212" type="car" depart="758" from="482053591" to="107366880#4" />
    <trip id="veh_213" type="car" depart="762" from="750471837#4" to="51962707#0" />
    <trip id="veh_214" type="car" depart="763" from="51962631#6" to="1190515158" />
    <trip id="veh_215" type="car" depart="767" from="-51962355#0" to="51962708#1" />
    <trip id="veh_216" type="car" depart="768" from="-51962606#0" to="51962352" />
    <trip id="veh_217" type="car" depart="773" from="-1227883882" to="51962387#1" />
    <trip id="veh_218" type="car" depart="774" from="51962722" to="51962606#2" />
    <trip id="veh_219" type="car" depart="775" from="-51962659#2" to="1227603549#1" />
    <trip id="veh_220" type="car" depart="778" from="51962350#2" to="51962557" />
    <trip id="veh_221" type="car" depart="779" from="-51962716#1" to="-51962606#0" />
    <trip id="veh_222" type="car" depart="781" from="759927383#0" to="-749930242" />
    <trip id="veh_223" type="car" depart="787" from="-51962705#0" to="1227603556#2" />
    <trip id="veh_224" type="car" depart="788" from="-51962707#1" to="-51962595#2" />
    <trip id="veh_225" type="car" depart="789" from="750471837#2" to="51962729#1" />
    <trip id="veh_226" type="car" depart="799" from="-51962590#1" to="525739383#0" />
    <trip id="veh_227" type="car" depart="802" from="-51962546" to="51962590#2" />
    <trip id="veh_228" type="car" depart="806" from="1392385901" to="-51962606#0" />
    <trip id="veh_229" type="car" depart="809" from="750471838#5" to="51962631#8" />
    <trip id="veh_230" type="car" depart="819" from="-51962579" to="51962716#2" />
    <trip id="veh_231" type="car" depart="820" from="51962576#0" to="-51962606#4" />
    <trip id="veh_232" type="car" depart="822" from="1227603550#0" to="51962708#2" />
    <trip id="veh_233" type="car" depart="831" from="51962544" to="-51962581#4" />
    <trip id="veh_234" type="car" depart="835" from="-51962705#2" to="51962541#1" />
    <trip id="veh_235" type="car" depart="836" from="-51962703#2" to="51962590#0" />
    <trip id="veh_236" type="car" depart="840" from="-51962606#4" to="51962350#2" />
    <trip id="veh_237" type="car" depart="844" from="-51962631#3" to="51962703#3" />
    <trip id="veh_238" type="car" depart="846" from="51962350#2" to="-51962718" />
    <trip id="veh_239" type="car" depart="850" from="-51962703#0" to="-51962708#0" />
    <trip id="veh_240" type="car" depart="851" from="-51962631#7" to="750471838#5" />
    <trip id="veh_241" type="car" depart="855" from="51962546" to="-51962700#3" />
    <trip id="veh_242" type="car" depart="857" from="-51962718" to="-51962713" />
    <trip id="veh_243" type="car" depart="859" from="51962606#3" to="1190551138" />
    <trip id="veh_244" type="car" depart="864" from="1227603545#5" to="51962350#2" />
    <trip id="veh_245" type="car" depart="868" from="51962709" to="51962729#0" />
    <trip id="veh_246" type="car" depart="873" from="-894853355" to="-51962703#0" />
    <trip id="veh_247" type="car" depart="875" from="53960645#3" to="51962631#1" />
    <trip id="veh_248" type="car" depart="877" from="759927383#3" to="-51962699#3" />
    <trip id="veh_249" type="car" depart="880" from="759927383#1" to="-51962705#1" />
    <trip id="veh_250" type="car" depart="882" from="107644626" to="51962716#2" />
    <trip id="veh_251" type="car" depart="889" from="1118219312" to="-1228099685#2" />
    <trip id="veh_252" type="car" depart="891" from="51962544" to="-51962705#0" />
    <trip id="veh_253" type="car" depart="892" from="1392385901" to="525739738#1" />
    <trip id="veh_254" type="car" depart="894" from="525739383#0" to="51962716#0" />
    <trip id="veh_255" type="car" depart="897" from="107627047" to="-51962705#2" />
    <trip id="veh_256" type="car" depart="901" from="364027516" to="1190551138" />
    <trip id="veh_257" type="car" depart="903" from="51962703#1" to="51962718" />
    <trip id="veh_258" type="car" depart="904" from="750471838#0" to="-1227603551#1" />
    <trip id="veh_259" type="car" depart="909" from="51962590#2" to="1227603549#0" />
    <trip id="veh_260" type="car" depart="911" from="-51962606#4" to="51962606#1" />
    <trip id="veh_261" type="car" depart="918" from="-1227603551#1" to="51962595#2" />
    <trip id="veh_262" type="car" depart="926" from="51962557" to="-51962717#0" />
    <trip id="veh_263" type="car" depart="931" from="-51962702#1" to="-51962581#1" />
    <trip id="veh_264" type="car" depart="934" from="-894853410" to="-51962355#2" />
    <trip id="veh_265" type="car" depart="942" from="-525739382" to="1392385901" />
    <trip id="veh_266" type="car" depart="947" from="51962610#0" to="51962708#1" />
    <trip id="veh_267" type="car" depart="959" from="-51962718" to="409566600#0" />
    <trip id="veh_268" type="car" depart="961" from="409566600#1" to="51962344#1" />
    <trip id="veh_269" type="car" depart="964" from="51962713" to="51962590#0" />
    <trip id="veh_270" type="car" depart="972" from="51962700#0" to="51962606#3" />
    <trip id="veh_271" type="car" depart="975" from="-51962344#0" to="-51962703#3" />
    <trip id="veh_272" type="car" depart="979" from="1190536688" to="51962606#4" />
    <trip id="veh_273" type="car" depart="982" from="-51962707#1" to="51962716#2" />
    <trip id="veh_274" type="car" depart="990" from="-51962697#1" to="-1228099685#1" />
    <trip id="veh_275" type="car" depart="995" from="1228099669" to="51962715" />
    <trip id="veh_276" type="car" depart="996" from="1392385901" to="750471837#1" />
    <trip id="veh_277" type="car" depart="997" from="-51962702#1" to="-51962595#1" />
    <trip id="veh_278" type="car" depart="1001" from="51962372#1" to="51962581#1" />
    <trip id="veh_279" type="car" depart="1006" from="-51962717#0" to="51962606#2" />
    <trip id="veh_280" type="car" depart="1008" from="-894853355" to="-51962703#1" />
    <trip id="veh_281" type="car" depart="1009" from="750471837#2" to="-1228099685#1" />
    <trip id="veh_282" type="car" depart="1014" from="-51962610#0" to="-51962581#4" />
    <trip id="veh_283" type="car" depart="1021" from="51962368" to="-51962595#1" />
    <trip id="veh_284" type="car" depart="1028" from="-51962700#2" to="51962707#1" />
    <trip id="veh_285" type="car" depart="1034" from="1189099248#7" to="51962581#1" />
    <trip id="veh_286" type="car" depart="1038" from="-756028261" to="1228099685#2" />
    <trip id="veh_287" type="car" depart="1039" from="51962344#0" to="-51962631#3" />
    <trip id="veh_288" type="car" depart="1041" from="-51962707#1" to="-51962716#3" />
    <trip id="veh_289" type="car" depart="1048" from="-51962372#2" to="1228099673#1" />
    <trip id="veh_290" type="car" depart="1061" from="-51962572" to="-51962708#1" />
    <trip id="veh_291" type="car" depart="1064" from="-51962703#3" to="51962352" />
    <trip id="veh_292" type="car" depart="1072" from="1227603549#0" to="51962732" />
    <trip id="veh_293" type="car" depart="1073" from="51962716#2" to="1227603550#0" />
    <trip id="veh_294" type="car" depart="1074" from="-51962387#0" to="409566596" />
    <trip id="veh_295" type="car" depart="1083" from="-51962708#2" to="750471838#0" />
    <trip id="veh_296" type="car" depart="1088" from="51962697#0" to="750471838#4" />
    <trip id="veh_297" type="car" depart="1090" from="51962590#2" to="-51962372#3" />
    <trip id="veh_298" type="car" depart="1091" from="750471837#3" to="525739383#0" />
    <trip id="veh_299" type="car" depart="1093" from="-51962674#0" to="51962707#0" />
    <trip id="veh_300" type="car" depart="1094" from="1228099673#1" to="51962606#4" />
    <trip id="veh_301" type="car" depart="1099" from="364027516" to="-51962595#1" />
    <trip id="veh_302" type="car" depart="1106" from="-51962631#5" to="51962697#0" />
    <trip id="veh_303" type="car" depart="1111" from="756028261" to="51962699#2" />
    <trip id="veh_304" type="car" depart="1113" from="-51962703#0" to="51962541#1" />
    <trip id="veh_305" type="car" depart="1116" from="759927383#2" to="-51962703#1" />
    <trip id="veh_306" type="car" depart="1119" from="409566601#1" to="51962546" />
    <trip id="veh_307" type="car" depart="1125" from="51962541#0" to="-51962674#1" />
    <trip id="veh_308" type="car" depart="1131" from="525739739" to="1228099673#1" />
    <trip id="veh_309" type="car" depart="1138" from="51962631#6" to="-51962705#1" />
    <trip id="veh_310" type="car" depart="1140" from="-51962674#1" to="-525739382" />
    <trip id="veh_311" type="car" depart="1141" from="51962352" to="51962703#1" />
    <trip id="veh_312" type="car" depart="1142" from="107366880#0" to="51962700#3" />
    <trip id="veh_313" type="car" depart="1162" from="53960645#4" to="-525739739" />
    <trip id="veh_314" type="car" depart="1183" from="-51962355#0" to="364027516" />
    <trip id="veh_315" type="car" depart="1185" from="51962712" to="1227603556#2" />
    <trip id="veh_316" type="car" depart="1187" from="1228099685#0" to="1228099685#1" />
    <trip id="veh_317" type="car" depart="1188" from="1227603545#5" to="1227603549#1" />
    <trip id="veh_318" type="car" depart="1189" from="1189099248#7" to="1190536671" />
    <trip id="veh_319" type="car" depart="1190" from="51962702#0" to="51962541#0" />
    <trip id="veh_320" type="car" depart="1192" from="-51962703#0" to="-1190515159#1" />
    <trip id="veh_321" type="car" depart="1195" from="53960645#0" to="53960645#1" />
    <trip id="veh_322" type="car" depart="1200" from="-51962629" to="1190515159#1" />
    <trip id="veh_323" type="car" depart="1205" from="-51962717#1" to="-51962350#2" />
    <trip id="veh_324" type="car" depart="1213" from="-51962659#2" to="51962544" />
    <trip id="veh_325" type="car" depart="1221" from="-51962674#2" to="51962541#0" />
    <trip id="veh_326" type="car" depart="1222" from="51962718" to="1227603556#2" />
    <trip id="veh_327" type="car" depart="1224" from="51962546" to="409566600#1" />
    <trip id="veh_328" type="car" depart="1227" from="51962700#0" to="51962705#1" />
    <trip id="veh_329" type="car" depart="1229" from="-51962631#4" to="-51962729#0" />
    <trip id="veh_330" type="car" depart="1233" from="51962631#8" to="1190536688" />
    <trip id="veh_331" type="car" depart="1235" from="51962389" to="482053591" />
    <trip id="veh_332" type="car" depart="1238" from="51962606#1" to="1190536688" />
    <trip id="veh_333" type="car" depart="1239" from="-51962699#0" to="51962732" />
    <trip id="veh_334" type="car" depart="1246" from="409566600#1" to="51962610#0" />
    <trip id="veh_335" type="car" depart="1248" from="-51962702#0" to="53960645#1" />
    <trip id="veh_336" type="car" depart="1249" from="51962631#3" to="51962702#1" />
    <trip id="veh_337" type="car" depart="1263" from="750471838#4" to="-894853410" />
    <trip id="veh_338" type="car" depart="1265" from="51962388" to="894853355" />
    <trip id="veh_339" type="car" depart="1272" from="-51962700#3" to="759927383#1" />
    <trip id="veh_340" type="car" depart="1278" from="1227603556#0" to="-1190515158" />
    <trip id="veh_341" type="car" depart="1281" from="51962579" to="-51962581#1" />
    <trip id="veh_342" type="car" depart="1283" from="-51962590#2" to="525739738#1" />
    <trip id="veh_343" type="car" depart="1284" from="51962700#2" to="-51962718" />
    <trip id="veh_344" type="car" depart="1300" from="51962697#0" to="-51962700#1" />
    <trip id="veh_345" type="car" depart="1302" from="-1190515158" to="-1228099684" />
    <trip id="veh_346" type="car" depart="1308" from="51962722" to="51962581#1" />
    <trip id="veh_347" type="car" depart="1309" from="-51962732" to="-51962674#2" />
    <trip id="veh_348" type="car" depart="1310" from="51962703#1" to="-1227603551#1" />
    <trip id="veh_349" type="car" depart="1311" from="-51962590#1" to="-51962631#7" />
    <trip id="veh_350" type="car" depart="1316" from="-51962355#2" to="51962699#2" />
    <trip id="veh_351" type="car" depart="1321" from="409566596" to="1190536671" />
    <trip id="veh_352" type="car" depart="1329" from="894853355" to="107644626" />