<?xml version='1.0' encoding='utf-8'?>
<routes>
    <vType id="car" accel="2.6" decel="4.5" sigma="0.5" length="4.5" maxSpeed="15" />
    <trip id="veh_0" type="car" depart="1" from="1228099684" to="1228099685#0" />
    <trip id="veh_1" type="car" depart="2" from="-1228099685#0" to="-1228099684" />
    <trip id="veh_2" type="car" depart="4" from="-1228099685#0" to="-1228099684" />
    <trip id="veh_3" type="car" depart="5" from="-1228099685#0" to="756028261" />
    <trip id="veh_4" type="car" depart="7" from="-756028261" to="-51962697#2" />
    <trip id="veh_5" type="car" depart="8" from="-1228099685#0" to="756028261" />
    <trip id="veh_6" type="car" depart="9" from="1228099684" to="1228099685#0" />
    <trip id="veh_7" type="car" depart="10" from="1228099684" to="1228099685#0" />
    <trip id="veh_8" type="car" depart="11" from="1228099684" to="-51962697#2" />
    <trip id="veh_9" type="car" depart="15" from="51962697#2" to="-1228099684" />
    <trip id="veh_10" type="car" depart="16" from="1228099684" to="1228099685#0" />
    <trip id="veh_11" type="car" depart="18" from="-756028261" to="-51962697#2" />
    <trip id="veh_12" type="car" depart="22" from="51962697#2" to="-1228099684" />
    <trip id="veh_13" type="car" depart="23" from="-756028261" to="-51962697#2" />
    <trip id="veh_14" type="car" depart="26" from="-756028261" to="1228099685#0" />
    <trip id="veh_15" type="car" depart="27" from="51962697#2" to="756028261" />
    <trip id="veh_16" type="car" depart="29" from="1228099684" to="1228099685#0" />
    <trip id="veh_17" type="car" depart="32" from="-1228099685#0" to="756028261" />
    <trip id="veh_18" type="car" depart="34" from="51962697#2" to="756028261" />
    <trip id="veh_19" type="car" depart="37" from="-756028261" to="1228099685#0" />
    <trip id="veh_20" type="car" depart="39" from="51962697#2" to="756028261" />
    <trip id="veh_21" type="car" depart="40" from="-756028261" to="-1228099684" />
    <trip id="veh_22" type="car" depart="43" from="-756028261" to="-51962697#2" />
    <trip id="veh_23" type="car" depart="44" from="51962697#2" to="756028261" />
    <trip id="veh_24" type="car" depart="45" from="-1228099685#0" to="-1228099684" />
    <trip id="veh_25" type="car" depart="47" from="1228099684" to="-51962697#2" />
    <trip id="veh_26" type="car" depart="48" from="51962697#2" to="1228099685#0" />
    <trip id="veh_27" type="car" depart="49" from="1228099684" to="1228099685#0" />
    <trip id="veh_28" type="car" depart="50" from="-1228099685#0" to="-51962697#2" />
    <trip id="veh_29" type="car" depart="52" from="-756028261" to="1228099685#0" />
    <trip id="veh_30" type="car" depart="53" from="-756028261" to="-1228099684" />
    <trip id="veh_31" type="car" depart="55" from="-1228099685#0" to="-51962697#2" />
    <trip id="veh_32" type="car" depart="58" from="-1228099685#0" to="756028261" />
    <trip id="veh_33" type="car" depart="60" from="51962697#2" to="-1228099684" />
    <trip id="veh_34" type="car" depart="62" from="-756028261" to="1228099685#0" />
    <trip id="veh_35" type="car" depart="65" from="51962697#2" to="1228099685#0" />
    <trip id="veh_36" type="car" depart="70" from="1228099684" to="756028261" />
    <trip id="veh_37" type="car" depart="72" from="-756028261" to="1228099685#0" />
    <trip id="veh_38" type="car" depart="73" from="-1228099685#0" to="756028261" />
    <trip id="veh_39" type="car" depart="74" from="-1228099685#0" to="-1228099684" />
    <trip id="veh_40" type="car" depart="75" from="-1228099685#0" to="-51962697#2" />
    <trip id="veh_41" type="car" depart="76" from="-756028261" to="-51962697#2" />
    <trip id="veh_42" type="car" depart="78" from="-756028261" to="-1228099684" />
    <trip id="veh_43" type="car" depart="81" from="-1228099685#0" to="756028261" />
    <trip id="veh_44" type="car" depart="82" from="51962697#2" to="756028261" />
    <trip id="veh_45" type="car" depart="84" from="-1228099685#0" to="-1228099684" />
    <trip id="veh_46" type="car" depart="85" from="1228099684" to="1228099685#0" />
    <trip id="veh_47" type="car" depart="86" from="51962697#2" to="1228099685#0" />
    <trip id="veh_48" type="car" depart="87" from="1228099684" to="756028261" />
    <trip id="veh_49" type="car" depart="88" from="-1228099685#0" to="756028261" />
    <trip id="veh_50" type="car" depart="91" from="-1228099685#0" to="-1228099684" />
    <trip id="veh_51" type="car" depart="94" from="51962697#2" to="756028261" />
    <trip id="veh_52" type="car" depart="95" from="51962697#2" to="-1228099684" />
    <trip id="veh_53" type="car" depart="96" from="-1228099685#0" to="756028261" />
    <trip id="veh_54" type="car" depart="97" from="51962697#2" to="1228099685#0" />
    <trip id="veh_55" type="car" depart="102" from="-756028261" to="-51962697#2" />
    <trip id="veh_56" type="car" depart="103" from="-1228099685#0" to="-1228099684" />
    <trip id="veh_57" type="car" depart="105" from="51962697#2" to="1228099685#0" />
    <trip id="veh_58" type="car" depart="106" from="-1228099685#0" to="-1228099684" />
    <trip id="veh_59" type="car" depart="109" from="-1228099685#0" to="756028261" />
    <trip id="veh_60" type="car" depart="112" from="1228099684" to="-51962697#2" />
    <trip id="veh_61" type="car" depart="113" from="1228099684" to="1228099685#0" />
    <trip id="veh_62" type="car" depart="114" from="-756028261" to="-51962697#2" />
    <trip id="veh_63" type="car" depart="115" from="-1228099685#0" to="-1228099684" />
    <trip id="veh_64" type="car" depart="116" from="-1228099685#0" to="-1228099684" />
    <trip id="veh_65" type="car" depart="117" from="1228099684" to="1228099685#0" />
    <trip id="veh_66" type="car" depart="121" from="-756028261" to="-51962697#2" />
    <trip id="veh_67" type="car" depart="126" from="1228099684" to="1228099685#0" />
    <trip id="veh_68" type="car" depart="127" from="-1228099685#0" to="-51962697#2" />
    <trip id="veh_69" type="car" depart="128" from="-756028261" to="-51962697#2" />
    <trip id="veh_70" type="car" depart="129" from="1228099684" to="756028261" />
    <trip id="veh_71" type="car" depart="130" from="-1228099685#0" to="-1228099684" />
    <trip id="veh_72" type="car" depart="133" from="1228099684" to="1228099685#0" />
    <trip id="veh_73" type="car" depart="135" from="51962697#2" to="756028261" />
    <trip id="veh_74" type="car" depart="137" from="-756028261" to="-1228099684" />
    <trip id="veh_75" type="car" depart="140" from="-756028261" to="-1228099684" />
    <trip id="veh_76" type="car" depart="141" from="-1228099685#0" to="-51962697#2" />
    <trip id="veh_77" type="car" depart="142" from="-756028261" to="-1228099684" />
    <trip id="veh_78" type="car" depart="143" from="51962697#2" to="1228099685#0" />
    <trip id="veh_79" type="car" depart="145" from="-756028261" to="1228099685#0" />
    <trip id="veh_80" type="car" depart="147" from="1228099684" to="756028261" />
    <trip id="veh_81" type="car" depart="151" from="-1228099685#0" to="756028261" />
    <trip id="veh_82" type="car" depart="154" from="51962697#2" to="1228099685#0" />
    <trip id="veh_83" type="car" depart="157" from="-756028261" to="1228099685#0" />
    <trip id="veh_84" type="car" depart="158" from="-1228099685#0" to="-51962697#2" />
    <trip id="veh_85" type="car" depart="159" from="51962697#2" to="-1228099684" />
    <trip id="veh_86" type="car" depart="160" from="1228099684" to="1228099685#0" />
    <trip id="veh_87" type="car" depart="163" from="51962697#2" to="756028261" />
    <trip id="veh_88" type="car" depart="165" from="-1228099685#0" to="756028261" />
    <trip id="veh_89" type="car" depart="167" from="-1228099685#0" to="756028261" />
    <trip id="veh_90" type="car" depart="168" from="-756028261" to="-51962697#2" />
    <trip id="veh_91" type="car" depart="169" from="1228099684" to="-51962697#2" />
    <trip id="veh_92" type="car" depart="171" from="1228099684" to="-51962697#2" />
    <trip id="veh_93" type="car" depart="173" from="1228099684" to="1228099685#0" />
    <trip id="veh_94" type="car" depart="174" from="51962697#2" to="1228099685#0" />
    <trip id="veh_95" type="car" depart="176" from="-1228099685#0" to="-51962697#2" />
    <trip id="veh_96" type="car" depart="177" from="51962697#2" to="1228099685#0" />
    <trip id="veh_97" type="car" depart="178" from="-756028261" to="-51962697#2" />
    <trip id="veh_98" type="car" depart="179" from="-1228099685#0" to="-51962697#2" />
    <trip id="veh_99" type="car" depart="180" from="1228099684" to="1228099685#0" />
    <trip id="veh_100" type="car" depart="182" from="-756028261" to="1228099685#0" />
    <trip id="veh_101" type="car" depart="183" from="-756028261" to="-51962697#2" />
    <trip id="veh_102" type="car" depart="185" from="51962697#2" to="1228099685#0" />
    <trip id="veh_103" type="car" depart="187" from="51962697#2" to="1228099685#0" />
    <trip id="veh_104" type="car" depart="188" from="-1228099685#0" to="-1228099684" />
    <trip id="veh_105" type="car" depart="190" from="51962697#2" to="-1228099684" />
    <trip id="veh_106" type="car" depart="193" from="-756028261" to="-51962697#2" />
    <trip id="veh_107" type="car" depart="194" from="1228099684" to="756028261" />
    <trip id="veh_108" type="car" depart="197" from="51962697#2" to="1228099685#0" />
    <trip id="veh_109" type="car" depart="199" from="1228099684" to="1228099685#0" />
    <trip id="veh_110" type="car" depart="201" from="51962697#2" to="1228099685#0" />
    <trip id="veh_111" type="car" depart="202" from="-1228099685#0" to="-51962697#2" />
    <trip id="veh_112" type="car" depart="203" from="1228099684" to="-51962697#2" />
    <trip id="veh_113" type="car" depart="205" from="-756028261" to="1228099685#0" />
    <trip id="veh_114" type="car" depart="206" from="-756028261" to="1228099685#0" />
    <trip id="veh_115" type="car" depart="207" from="51962697#2" to="756028261" />
    <trip id="veh_116" type="car" depart="208" from="-1228099685#0" to="-51962697#2" />
    <trip id="veh_117" type="car" depart="209" from="-1228099685#0" to="756028261" />
    <trip id="veh_118" type="car" depart="210" from="1228099684" to="-51962697#2" />
    <trip id="veh_119" type="car" depart="214" from="-756028261" to="-1228099684" />
    <trip id="veh_120" type="car" depart="215" from="51962697#2" to="-1228099684" />
    <trip id="veh_121" type="car" depart="216" from="51962697#2" to="1228099685#0" />
    <trip id="veh_122" type="car" depart="220" from="51962697#2" to="-1228099684" />
    <trip id="veh_123" type="car" depart="221" from="51962697#2" to="1228099685#0" />
    <trip id="veh_124" type="car" depart="223" from="1228099684" to="756028261" />
    <trip id="veh_125" type="car" depart="224" from="51962697#2" to="1228099685#0" />
    <trip id="veh_126" type="car" depart="226" from="51962697#2" to="-1228099684" />
    <trip id="veh_127" type="car" depart="227" from="-1228099685#0" to="-51962697#2" />
    <trip id="veh_128" type="car" depart="228" from="-1228099685#0" to="-1228099684" />
    <trip id="veh_129" type="car" depart="231" from="-1228099685#0" to="-1228099684" />
    <trip id="veh_130" type="car" depart="232" from="-1228099685#0" to="-51962697#2" />
    <trip id="veh_131" type="car" depart="235" from="-1228099685#0" to="-51962697#2" />
    <trip id="veh_132" type="car" depart="236" from="-1228099685#0" to="-51962697#2" />
    <trip id="veh_133" type="car" depart="239" from="-756028261" to="-1228099684" />
    <trip id="veh_134" type="car" depart="242" from="1228099684" to="756028261" />
    <trip id="veh_135" type="car" depart="244" from="51962697#2" to="-1228099684" />
    <trip id="veh_136" type="car" depart="245" from="1228099684" to="-51962697#2" />
    <trip id="veh_137" type="car" depart="247" from="1228099684" to="756028261" />
    <trip id="veh_138" type="car" depart="249" from="1228099684" to="756028261" />
    <trip id="veh_139" type="car" depart="250" from="1228099684" to="-51962697#2" />
    <trip id="veh_140" type="car" depart="253" from="51962697#2" to="1228099685#0" />
    <trip id="veh_141" type="car" depart="257" from="51962697#2" to="-1228099684" />
    <trip id="veh_142" type="car" depart="258" from="1228099684" to="-51962697#2" />
    <trip id="veh_143" type="car" depart="259" from="1228099684" to="756028261" />
    <trip id="veh_144" type="car" depart="261" from="51962697#2" to="756028261" />
    <trip id="veh_145" type="car" depart="262" from="-756028261" to="-51962697#2" />
    <trip id="veh_146" type="car" depart="264" from="-1228099685#0" to="-1228099684" />
    <trip id="veh_147" type="car" depart="265" from="51962697#2" to="1228099685#0" />
    <trip id="veh_148" type="car" depart="266" from="1228099684" to="756028261" />
    <trip id="veh_149" type="car" depart="267" from="1228099684" to="756028261" />
    <trip id="veh_150" type="car" depart="269" from="1228099684" to="756028261" />
    <trip id="veh_151" type="car" depart="270" from="1228099684" to="1228099685#0" />
    <trip id="veh_152" type="car" depart="271" from="-756028261" to="-51962697#2" />
    <trip id="veh_153" type="car" depart="272" from="-756028261" to="1228099685#0" />
    <trip id="veh_154" type="car" depart="273" from="51962697#2" to="756028261" />
    <trip id="veh_155" type="car" depart="279" from="1228099684" to="1228099685#0" />
    <trip id="veh_156" type="car" depart="280" from="-756028261" to="-51962697#2" />
    <trip id="veh_157" type="car" depart="281" from="-1228099685#0" to="-51962697#2" />
    <trip id="veh_158" type="car" depart="283" from="51962697#2" to="-1228099684" />
    <trip id="veh_159" type="car" depart="286" from="51962697#2" to="-1228099684" />
    <trip id="veh_160" type="car" depart="288" from="51962697#2" to="-1228099684" />
    <trip id="veh_161" type="car" depart="290" from="-1228099685#0" to="-1228099684" />
    <trip id="veh_162" type="car" depart="291" from="1228099684" to="1228099685#0" />
    <trip id="veh_163" type="car" depart="292" from="51962697#2" to="1228099685#0" />
    <trip id="veh_164" type="car" depart="294" from="51962697#2" to="756028261" />
    <trip id="veh_165" type="car" depart="296" from="-1228099685#0" to="-1228099684" />
    <trip id="veh_166" type="car" depart="298" from="-756028261" to="-51962697#2" />
    <trip id="veh_167" type="car" depart="300" from="-756028261" to="-1228099684" />
    <trip id="veh_168" type="car" depart="301" from="51962697#2" to="756028261" />
    <trip id="veh_169" type="car" depart="303" from="-1228099685#0" to="-51962697#2" />
    <trip id="veh_170" type="car" depart="306" from="-756028261" to="-51962697#2" />
    <trip id="veh_171" type="car" depart="311" from="-756028261" to="1228099685#0" />
    <trip id="veh_172" type="car" depart="314" from="-756028261" to="-51962697#2" />
    <trip id="veh_173" type="car" depart="318" from="51962697#2" to="756028261" />
    <trip id="veh_174" type="car" depart="319" from="1228099684" to="756028261" />
    <trip id="veh_175" type="car" depart="320" from="-1228099685#0" to="756028261" />
    <trip id="veh_176" type="car" depart="323" from="-756028261" to="-1228099684" />
    <trip id="veh_177" type="car" depart="326" from="-1228099685#0" to="-51962697#2" />
    <trip id="veh_178" type="car" depart="327" from="51962697#2" to="-1228099684" />
    <trip id="veh_179" type="car" depart="329" from="51962697#2" to="-1228099684" />
    <trip id="veh_180" type="car" depart="330" from="51962697#2" to="1228099685#0" />
    <trip id="veh_181" type="car" depart="333" from="51962697#2" to="756028261" />
    <trip id="veh_182" type="car" depart="336" from="51962697#2" to="-1228099684" />
    <trip id="veh_183" type="car" depart="337" from="1228099684" to="-51962697#2" />
    <trip id="veh_184" type="car" depart="340" from="51962697#2" to="756028261" />
    <trip id="veh_185" type="car" depart="341" from="1228099684" to="756028261" />
    <trip id="veh_186" type="car" depart="344" from="-756028261" to="-51962697#2" />
    <trip id="veh_187" type="car" depart="345" from="51962697#2" to="-1228099684" />
    <trip id="veh_188" type="car" depart="346" from="-756028261" to="1228099685#0" />
    <trip id="veh_189" type="car" depart="347" from="-1228099685#0" to="756028261" />
    <trip id="veh_190" type="car" depart="348" from="-1228099685#0" to="756028261" />
    <trip id="veh_191" type="car" depart="351" from="1228099684" to="-51962697#2" />
    <trip id="veh_192" type="car" depart="352" from="51962697#2" to="756028261" />
    <trip id="veh_193" type="car" depart="353" from="-756028261" to="-1228099684" />
    <trip id="veh_194" type="car" depart="355" from="-756028261" to="-1228099684" />
    <trip id="veh_195" type="car" depart="356" from="51962697#2" to="756028261" />
    <trip id="veh_196" type="car" depart="357" from="-1228099685#0" to="-51962697#2" />
    <trip id="veh_197" type="car" depart="363" from="51962697#2" to="1228099685#0" />
    <trip id="veh_198" type="car" depart="364" from="51962697#2" to="756028261" />
    <trip id="veh_199" type="car" depart="368" from="51962697#2" to="1228099685#0" />
    <trip id="veh_200" type="car" depart="370" from="1228099684" to="756028261" />
    <trip id="veh_201" type="car" depart="373" from="-756028261" to="-1228099684" />
    <trip id="veh_202" type="car" depart="374" from="1228099684" to="-51962697#2" />
    <trip id="veh_203" type="car" depart="375" from="51962697#2" to="-1228099684" />
    <trip id="veh_204" type="car" depart="377" from="-756028261" to="-1228099684" />
    <trip id="veh_205" type="car" depart="378" from="1228099684" to="-51962697#2" />
    <trip id="veh_206" type="car" depart="380" from="-1228099685#0" to="-51962697#2" />
    <trip id="veh_207" type="car" depart="383" from="1228099684" to="756028261" />
    <trip id="veh_208" type="car" depart="385" from="-1228099685#0" to="756028261" />
    <trip id="veh_209" type="car" depart="387" from="-756028261" to="-1228099684" />
    <trip id="veh_210" type="car" depart="388" from="-1228099685#0" to="-1228099684" />
    <trip id="veh_211" type="car" depart="389" from="1228099684" to="1228099685#0" />
    <trip id="veh_212" type="car" depart="390" from="-1228099685#0" to="-51962697#2" />
    <trip id="veh_213" type="car" depart="391" from="51962697#2" to="1228099685#0" />
    <trip id="veh_214" type="car" depart="392" from="51962697#2" to="1228099685#0" />
    <trip id="veh_215" type="car" depart="393" from="-1228099685#0" to="756028261" />
    <trip id="veh_216" type="car" depart="395" from="-756028261" to="1228099685#0" />
    <trip id="veh_217" type="car" depart="396" from="1228099684" to="756028261" />
    <trip id="veh_218" type="car" depart="397" from="-1228099685#0" to="756028261" />
    <trip id="veh_219" type="car" depart="400" from="51962697#2" to="756028261" />
    <trip id="veh_220" type="car" depart="401" from="51962697#2" to="1228099685#0" />
    <trip id="veh_221" type="car" depart="403" from="51962697#2" to="756028261" />
    <trip id="veh_222" type="car" depart="404" from="51962697#2" to="756028261" />
    <trip id="veh_223" type="car" depart="405" from="1228099684" to="756028261" />
    <trip id="veh_224" type="car" depart="406" from="-1228099685#0" to="-1228099684" />
    <trip id="veh_225" type="car" depart="412" from="1228099684" to="1228099685#0" />
    <trip id="veh_226" type="car" depart="422" from="51962697#2" to="-1228099684" />
    <trip id="veh_227" type="car" depart="425" from="1228099684" to="-51962697#2" />
    <trip id="veh_228" type="car" depart="427" from="-756028261" to="-51962697#2" />
    <trip id="veh_229" type="car" depart="428" from="1228099684" to="1228099685#0" />
    <trip id="veh_230" type="car" depart="429" from="51962697#2" to="756028261" />
    <trip id="veh_231" type="car" depart="432" from="-1228099685#0" to="-1228099684" />
    <trip id="veh_232" type="car" depart="438" from="51962697#2" to="-1228099684" />
    <trip id="veh_233" type="car" depart="439" from="-1228099685#0" to="756028261" />
    <trip id="veh_234" type="car" depart="440" from="1228099684" to="756028261" />
    <trip id="veh_235" type="car" depart="443" from="-756028261" to="-1228099684" />
    <trip id="veh_236" type="car" depart="446" from="-756028261" to="-1228099684" />
    <trip id="veh_237" type="car" depart="448" from="1228099684" to="756028261" />
    <trip id="veh_238" type="car" depart="449" from="-1228099685#0" to="-1228099684" />
    <trip id="veh_239" type="car" depart="450" from="51962697#2" to="-1228099684" />
    <trip id="veh_240" type="car" depart="451" from="-756028261" to="1228099685#0" />
    <trip id="veh_241" type="car" depart="452" from="51962697#2" to="1228099685#0" />
    <trip id="veh_242" type="car" depart="458" from="1228099684" to="1228099685#0" />
    <trip id="veh_243" type="car" depart="459" from="-756028261" to="-51962697#2" />
    <trip id="veh_244" type="car" depart="460" from="1228099684" to="-51962697#2" />
    <trip id="veh_245" type="car" depart="461" from="1228099684" to="1228099685#0" />
    <trip id="veh_246" type="car" depart="465" from="-756028261" to="-1228099684" />
    <trip id="veh_247" type="car" depart="466" from="1228099684" to="1228099685#0" />
    <trip id="veh_248" type="car" depart="469" from="-756028261" to="1228099685#0" />
    <trip id="veh_249" type="car" depart="471" from="-756028261" to="-1228099684" />
    <trip id="veh_250" type="car" depart="472" from="-756028261" to="1228099685#0" />
    <trip id="veh_251" type="car" depart="473" from="-756028261" to="-1228099684" />
    <trip id="veh_252" type="car" depart="475" from="-1228099685#0" to="-51962697#2" />
    <trip id="veh_253" type="car" depart="477" from="1228099684" to="1228099685#0" />
    <trip id="veh_254" type="car" depart="478" from="-756028261" to="-51962697#2" />
    <trip id="veh_255" type="car" depart="479" from="-1228099685#0" to="756028261" />
    <trip id="veh_256" type="car" depart="480" from="1228099684" to="-51962697#2" />
    <trip id="veh_257" type="car" depart="481" from="-1228099685#0" to="-51962697#2" />
    <trip id="veh_258" type="car" depart="482" from="-1228099685#0" to="-1228099684" />
    <trip id="veh_259" type="car" depart="485" from="-1228099685#0" to="756028261" />
    <trip id="veh_260" type="car" depart="487" from="-1228099685#0" to="-51962697#2" />
    <trip id="veh_261" type="car" depart="489" from="1228099684" to="-51962697#2" />
    <trip id="veh_262" type="car" depart="490" from="1228099684" to="756028261" />
    <trip id="veh_263" type="car" depart="491" from="51962697#2" to="-1228099684" />
    <trip id="veh_264" type="car" depart="493" from="-756028261" to="1228099685#0" />
    <trip id="veh_265" type="car" depart="495" from="51962697#2" to="756028261" />
    <trip id="veh_266" type="car" depart="496" from="-1228099685#0" to="-51962697#2" />
    <trip id="veh_267" type="car" depart="497" from="1228099684" to="-51962697#2" />
    <trip id="veh_268" type="car" depart="500" from="-1228099685#0" to="-1228099684" />
    <trip id="veh_269" type="car" depart="501" from="-1228099685#0" to="-51962697#2" />
    <trip id="veh_270" type="car" depart="506" from="-1228099685#0" to="756028261" />
    <trip id="veh_271" type="car" depart="507" from="51962697#2" to="-1228099684" />
    <trip id="veh_272" type="car" depart="510" from="-756028261" to="1228099685#0" />
    <trip id="veh_273" type="car" depart="512" from="-1228099685#0" to="-51962697#2" />
    <trip id="veh_274" type="car" depart="514" from="1228099684" to="1228099685#0" />
    <trip id="veh_275" type="car" depart="521" from="1228099684" to="1228099685#0" />
    <trip id="veh_276" type="car" depart="522" from="1228099684" to="-51962697#2" />
    <trip id="veh_277" type="car" depart="523" from="-756028261" to="1228099685#0" />
    <trip id="veh_278" type="car" depart="525" from="-756028261" to="-1228099684" />
    <trip id="veh_279" type="car" depart="526" from="-756028261" to="1228099685#0" />
    <trip id="veh_280" type="car" depart="527" from="-756028261" to="-51962697#2" />
    <trip id="veh_281" type="car" depart="528" from="1228099684" to="1228099685#0" />
    <trip id="veh_282" type="car" depart="529" from="-1228099685#0" to="-1228099684" />
    <trip id="veh_283" type="car" depart="530" from="51962697#2" to="756028261" />
    <trip id="veh_284" type="car" depart="532" from="-756028261" to="-1228099684" />
    <trip id="veh_285" type="car" depart="533" from="-1228099685#0" to="-51962697#2" />
    <trip id="veh_286" type="car" depart="536" from="1228099684" to="1228099685#0" />
    <trip id="veh_287" type="car" depart="537" from="-1228099685#0" to="-1228099684" />
    <trip id="veh_288" type="car" depart="538" from="-756028261" to="1228099685#0" />
    <trip id="veh_289" type="car" depart="540" from="-1228099685#0" to="-1228099684" />
    <trip id="veh_290" type="car" depart="541" from="51962697#2" to="1228099685#0" />
    <trip id="veh_291" type="car" depart="542" from="-756028261" to="-51962697#2" />
    <trip id="veh_292" type="car" depart="543" from="-1228099685#0" to="756028261" />
    <trip id="veh_293" type="car" depart="544" from="-1228099685#0" to="-51962697#2" />
    <trip id="veh_294" type="car" depart="548" from="-1228099685#0" to="756028261" />
    <trip id="veh_295" type="car" depart="549" from="1228099684" to="1228099685#0" />
    <trip id="veh_296" type="car" depart="554" from="-1228099685#0" to="-51962697#2" />
    <trip id="veh_297" type="car" depart="556" from="51962697#2" to="756028261" />
    <trip id="veh_298" type="car" depart="557" from="1228099684" to="1228099685#0" />
    <trip id="veh_299" type="car" depart="558" from="-1228099685#0" to="-51962697#2" />
    <trip id="veh_300" type="car" depart="559" from="-756028261" to="1228099685#0" />
    <trip id="veh_301" type="car" depart="560" from="1228099684" to="1228099685#0" />
    <trip id="veh_302" type="car" depart="561" from="-756028261" to="-1228099684" />
    <trip id="veh_303" type="car" depart="562" from="51962697#2" to="756028261" />
    <trip id="veh_304" type="car" depart="565" from="1228099684" to="-51962697#2" />
    <trip id="veh_305" type="car" depart="566" from="-1228099685#0" to="756028261" />
    <trip id="veh_306" type="car" depart="567" from="1228099684" to="-51962697#2" />
    <trip id="veh_307" type="car" depart="569" from="-1228099685#0" to="-51962697#2" />
    <trip id="veh_308" type="car" depart="570" from="-1228099685#0" to="-1228099684" />
    <trip id="veh_309" type="car" depart="571" from="1228099684" to="756028261" />
    <trip id="veh_310" type="car" depart="575" from="51962697#2" to="-1228099684" />
    <trip id="veh_311" type="car" depart="576" from="-756028261" to="-51962697#2" />
    <trip id="veh_312" type="car" depart="578" from="-1228099685#0" to="756028261" />
    <trip id="veh_313" type="car" depart="579" from="1228099684" to="756028261" />
    <trip id="veh_314" type="car" depart="581" from="51962697#2" to="756028261" />
    <trip id="veh_315" type="car" depart="582" from="-756028261" to="-51962697#2" />
    <trip id="veh_316" type="car" depart="583" from="1228099684" to="756028261" />
    <trip id="veh_317" type="car" depart="584" from="1228099684" to="756028261" />
    <trip id="veh_318" type="car" depart="586" from="-1228099685#0" to="756028261" />
    <trip id="veh_319" type="car" depart="587" from="-756028261" to="-51962697#2" />
    <trip id="veh_320" type="car" depart="588" from="-756028261" to="-51962697#2" />
    <trip id="veh_321" type="car" depart="589" from="51962697#2" to="1228099685#0" />
    <trip id="veh_322" type="car" depart="592" from="51962697#2" to="-1228099684" />
    <trip id="veh_323" type="car" depart="597" from="51962697#2" to="-1228099684" />
    <trip id="veh_324" type="car" depart="598" from="-756028261" to="1228099685#0" />
    <trip id="veh_325" type="car" depart="599" from="51962697#2" to="1228099685#0" />
    <trip id="veh_326" type="car" depart="600" from="-756028261" to="1228099685#0" />
    <trip id="veh_327" type="car" depart="601" from="-1228099685#0" to="-1228099684" />
    <trip id="veh_328" type="car" depart="606" from="-756028261" to="1228099685#0" />
    <trip id="veh_329" type="car" depart="608" from="1228099684" to="1228099685#0" />
    <trip id="veh_330" type="car" depart="613" from="-756028261" to="-51962697#2" />
    <trip id="veh_331" type="car" depart="617" from="51962697#2" to="756028261" />
    <trip id="veh_332" type="car" depart="620" from="51962697#2" to="1228099685#0" />
    <trip id="veh_333" type="car" depart="623" from="1228099684" to="756028261" />
    <trip id="veh_334" type="car" depart="624" from="1228099684" to="756028261" />
    <trip id="veh_335" type="car" depart="627" from="-756028261" to="-51962697#2" />
    <trip id="veh_336" type="car" depart="628" from="-756028261" to="-1228099684" />
    <trip id="veh_337" type="car" depart="630" from="51962697#2" to="-1228099684" />
    <trip id="veh_338" type="car" depart="631" from="51962697#2" to="-1228099684" />
    <trip id="veh_339" type="car" depart="632" from="-1228099685#0" to="-51962697#2" />
    <trip id="veh_340" type="car" depart="633" from="1228099684" to="756028261" />
    <trip id="veh_341" type="car" depart="636" from="1228099684" to="756028261" />
    <trip id="veh_342" type="car" depart="638" from="51962697#2" to="756028261" />
    <trip id="veh_343" type="car" depart="641" from="-756028261" to="1228099685#0" />
    <trip id="veh_344" type="car" depart="642" from="51962697#2" to="-1228099684" />
    <trip id="veh_345" type="car" depart="644" from="-1228099685#0" to="-1228099684" />
    <trip id="veh_346" type="car" depart="645" from="51962697#2" to="-1228099684" />
    <trip id="veh_347" type="car" depart="646" from="51962697#2" to="-1228099684" />
    <trip id="veh_348" type="car" depart="650" from="-1228099685#0" to="-51962697#2" />
    <trip id="veh_349" type="car" depart="651" from="51962697#2" to="1228099685#0" />
    <trip id="veh_350" type="car" depart="653" from="1228099684" to="756028261" />