<?xml version='1.0' encoding='utf-8'?>
<routes>
    <vType id="car" accel="2.6" decel="4.5" maxSpeed="15" />
    <trip id="veh_0" type="car" depart="1" from="1228099685#2" to="1227603549#2" />
    <trip id="veh_1" type="car" depart="2" from="-51962659#0" to="-51962610#0" />
    <trip id="veh_2" type="car" depart="4" from="-51962631#3" to="107627051" />
    <trip id="veh_3" type="car" depart="5" from="-1228099685#1" to="-894853354" />
    <trip id="veh_4" type="car" depart="8" from="51962716#0" to="1228099687#1" />
    <trip id="veh_5" type="car" depart="10" from="-51962708#2" to="51962703#3" />
    <trip id="veh_6" type="car" depart="11" from="-51962708#0" to="107627047" />
    <trip id="veh_7" type="car" depart="13" from="-51962631#3" to="51962631#6" />
    <trip id="veh_8" type="car" depart="14" from="51962579" to="1228099673#1" />
    <trip id="veh_9" type="car" depart="19" from="409566600#0" to="51962606#2" />
    <trip id="veh_10" type="car" depart="22" from="1189297793" to="409566596" />
    <trip id="veh_11" type="car" depart="26" from="51962717#1" to="51962606#3" />
    <trip id="veh_12" type="car" depart="27" from="51962595#1" to="107366880#3" />
    <trip id="veh_13" type="car" depart="31" from="-51962716#3" to="1227603549#2" />
    <trip id="veh_14" type="car" depart="32" from="51962631#6" to="1228099685#0" />
    <trip id="veh_15" type="car" depart="39" from="-51962344#1" to="51962355#2" />
    <trip id="veh_16" type="car" depart="40" from="-51962581#4" to="107366880#4" />
    <trip id="veh_17" type="car" depart="44" from="750471838#0" to="51962697#2" />
    <trip id="veh_18" type="car" depart="47" from="-51962703#1" to="1227603550#0" />
    <trip id="veh_19" type="car" depart="51" from="51962699#1" to="51962606#2" />
    <trip id="veh_20" type="car" depart="52" from="-51962703#0" to="756028261" />
    <trip id="veh_21" type="car" depart="53" from="-51962372#3" to="-51962674#1" />
    <trip id="veh_22" type="car" depart="54" from="-51962708#2" to="51962703#3" />
    <trip id="veh_23" type="car" depart="56" from="525739382" to="1227603551#1" />
    <trip id="veh_24" type="car" depart="59" from="-51962697#1" to="1228099673#2" />
    <trip id="veh_25" type="car" depart="61" from="409566600#0" to="51962708#0" />
    <trip id="veh_26" type="car" depart="62" from="-1190515158" to="1228099670" />
    <trip id="veh_27" type="car" depart="66" from="409566601#0" to="750471838#5" />
    <trip id="veh_28" type="car" depart="68" from="-51962709" to="-1189297793" />
    <trip id="veh_29" type="car" depart="70" from="-51962674#2" to="51962606#2" />
    <trip id="veh_30" type="car" depart="73" from="-51962557" to="1227603549#0" />
    <trip id="veh_31" type="car" depart="76" from="53960645#5" to="-51962590#2" />
    <trip id="veh_32" type="car" depart="79" from="53960645#0" to="-51962713" />
    <trip id="veh_33" type="car" depart="80" from="51962703#3" to="107366880#4" />
    <trip id="veh_34" type="car" depart="85" from="51962631#3" to="51962708#2" />
    <trip id="veh_35" type="car" depart="87" from="1227603550#0" to="1189099248#7" />
    <trip id="veh_36" type="car" depart="88" from="-1227883882" to="1190515158" />
    <trip id="veh_37" type="car" depart="90" from="-51962572" to="1190515158" />
    <trip id="veh_38" type="car" depart="91" from="-51962344#1" to="51962541#0" />
    <trip id="veh_39" type="car" depart="92" from="1190551138" to="1228099687#1" />
    <trip id="veh_40" type="car" depart="94" from="-51962700#3" to="525739739" />
    <trip id="veh_41" type="car" depart="95" from="525739739" to="51962700#1" />
    <trip id="veh_42" type="car" depart="96" from="-51962631#5" to="51962707#0" />
    <trip id="veh_43" type="car" depart="97" from="51962700#3" to="525739382" />
    <trip id="veh_44" type="car" depart="99" from="-51962631#6" to="-51962579" />
    <trip id="veh_45" type="car" depart="100" from="51962557" to="-51962674#0" />
    <trip id="veh_46" type="car" depart="101" from="-525739382" to="51962716#0" />
    <trip id="veh_47" type="car" depart="102" from="-51962722" to="1228099687#1" />
    <trip id="veh_48" type="car" depart="103" from="-51962595#2" to="51962712" />
    <trip id="veh_49" type="car" depart="106" from="-1227603550#2" to="-51962631#3" />
    <trip id="veh_50" type="car" depart="109" from="53960645#5" to="53960645#3" />
    <trip id="veh_51" type="car" depart="110" from="51962699#2" to="-51962572" />
    <trip id="veh_52" type="car" depart="111" from="-1190515158" to="51962674#1" />
    <trip id="veh_53" type="car" depart="112" from="51962717#1" to="1392385901" />
    <trip id="veh_54" type="car" depart="113" from="53960645#6" to="-51962708#0" />
    <trip id="veh_55" type="car" depart="114" from="107627051" to="-51962557" />
    <trip id="veh_56" type="car" depart="118" from="53960645#1" to="750471838#3" />
    <trip id="veh_57" type="car" depart="121" from="756028261" to="-51962606#2" />
    <trip id="veh_58" type="car" depart="123" from="-51962590#1" to="1190536688" />
    <trip id="veh_59" type="car" depart="124" from="1227603550#0" to="-51962352" />
    <trip id="veh_60" type="car" depart="126" from="894853410" to="51962355#2" />
    <trip id="veh_61" type="car" depart="128" from="51962352" to="1227603545#5" />
    <trip id="veh_62" type="car" depart="129" from="-51962700#3" to="409566601#1" />
    <trip id="veh_63" type="car" depart="130" from="-51962595#1" to="-1190536688" />
    <trip id="veh_64" type="car" depart="131" from="-51962631#7" to="-51962595#1" />
    <trip id="veh_65" type="car" depart="134" from="51962581#4" to="-51962590#2" />
    <trip id="veh_66" type="car" depart="136" from="-51962708#1" to="51962708#2" />
    <trip id="veh_67" type="car" depart="142" from="409566601#1" to="-51962659#1" />
    <trip id="veh_68" type="car" depart="144" from="-51962697#2" to="-51962659#2" />
    <trip id="veh_69" type="car" depart="146" from="1340532651" to="107366880#3" />
    <trip id="veh_70" type="car" depart="148" from="1228099673#1" to="750471838#4" />
    <trip id="veh_71" type="car" depart="149" from="-51962388" to="-51962631#3" />
    <trip id="veh_72" type="car" depart="152" from="51962541#1" to="-51962700#2" />
    <trip id="veh_73" type="car" depart="154" from="51962712" to="51962705#1" />
    <trip id="veh_74" type="car" depart="156" from="-51962705#2" to="-51962350#2" />
    <trip id="veh_75" type="car" depart="159" from="-51962700#1" to="-51962355#0" />
    <trip id="veh_76" type="car" depart="160" from="-51962352" to="51962606#0" />
    <trip id="veh_77" type="car" depart="161" from="1227603550#2" to="-51962659#0" />
    <trip id="veh_78" type="car" depart="162" from="51962700#1" to="-51962708#0" />
    <trip id="veh_79" type="car" depart="164" from="-51962712" to="-51962717#1" />
    <trip id="veh_80" type="car" depart="166" from="51962541#1" to="51962700#3" />
    <trip id="veh_81" type="car" depart="170" from="-51962674#0" to="51962631#7" />
    <trip id="veh_82" type="car" depart="173" from="51962722" to="51962590#0" />
    <trip id="veh_83" type="car" depart="174" from="1189297793" to="1118219312" />
    <trip id="veh_84" type="car" depart="175" from="-525739739" to="51962699#1" />
    <trip id="veh_85" type="car" depart="176" from="-51962590#2" to="1228099687#1" />
    <trip id="veh_86" type="car" depart="177" from="756028261" to="51962699#1" />
    <trip id="veh_87" type="car" depart="180" from="-1228099685#2" to="-51962697#2" />
    <trip id="veh_88" type="car" depart="182" from="1228099673#1" to="-51962351" />
    <trip id="veh_89" type="car" depart="183" from="51962708#0" to="51962579" />
    <trip id="veh_90" type="car" depart="185" from="759927383#0" to="-51962697#2" />
    <trip id="veh_91" type="car" depart="186" from="-525739382" to="1227603556#0" />
    <trip id="veh_92" type="car" depart="187" from="51962708#1" to="-1189297793" />
    <trip id="veh_93" type="car" depart="193" from="51962707#0" to="-51962590#2" />
    <trip id="veh_94" type="car" depart="198" from="409566601#1" to="750471838#5" />
    <trip id="veh_95" type="car" depart="199" from="51962700#2" to="51962388" />
    <trip id="veh_96" type="car" depart="200" from="409566600#1" to="-51962700#1" />
    <trip id="veh_97" type="car" depart="201" from="51962631#6" to="-51962717#0" />
    <trip id="veh_98" type="car" depart="203" from="-1189297793" to="51962344#0" />
    <trip id="veh_99" type="car" depart="204" from="51962707#0" to="51962372#3" />
    <trip id="veh_100" type="car" depart="205" from="51962712" to="107627046#3" />
    <trip id="veh_101" type="car" depart="211" from="51962544" to="-51962631#3" />
    <trip id="veh_102" type="car" depart="215" from="-894853354" to="-51962705#1" />
    <trip id="veh_103" type="car" depart="216" from="1227603549#2" to="53960645#0" />
    <trip id="veh_104" type="car" depart="219" from="-749930242" to="51962631#8" />
    <trip id="veh_105" type="car" depart="220" from="1227603549#1" to="-51962705#1" />
    <trip id="veh_106" type="car" depart="222" from="-51962659#2" to="51962705#0" />
    <trip id="veh_107" type="car" depart="223" from="894853354" to="51962729#1" />
    <trip id="veh_108" type="car" depart="224" from="1227603550#2" to="-51962699#2" />
    <trip id="veh_109" type="car" depart="225" from="51962729#1" to="51962368" />
    <trip id="veh_110" type="car" depart="235" from="1227883882" to="1227603550#0" />
    <trip id="veh_111" type="car" depart="237" from="894853355" to="53960645#5" />
    <trip id="veh_112" type="car" depart="239" from="-51962606#0" to="1392385901" />
    <trip id="veh_113" type="car" depart="240" from="51962544" to="51962372#1" />
    <trip id="veh_114" type="car" depart="242" from="-51962707#0" to="1190515159#1" />
    <trip id="veh_115" type="car" depart="243" from="-51962707#1" to="107627046#3" />
    <trip id="veh_116" type="car" depart="244" from="51962700#1" to="51962541#0" />
    <trip id="veh_117" type="car" depart="246" from="107366880#1" to="51962703#2" />
    <trip id="veh_118" type="car" depart="247" from="-1227883882" to="51962631#6" />
    <trip id="veh_119" type="car" depart="248" from="51962590#2" to="409566601#0" />
    <trip id="veh_120" type="car" depart="252" from="107627052" to="53960645#6" />
    <trip id="veh_121" type="car" depart="253" from="51962708#1" to="53960645#5" />
    <trip id="veh_122" type="car" depart="254" from="51962546" to="51962700#0" />
    <trip id="veh_123" type="car" depart="263" from="51962705#2" to="-51962702#1" />
    <trip id="veh_124" type="car" depart="265" from="1228099669" to="51962631#6" />
    <trip id="veh_125" type="car" depart="266" from="51962717#1" to="51962388" />
    <trip id="veh_126" type="car" depart="267" from="51962631#6" to="1228099687#1" />
    <trip id="veh_127" type="car" depart="270" from="-51962606#2" to="525739383#0" />
    <trip id="veh_128" type="car" depart="271" from="-51962388" to="51962590#0" />
    <trip id="veh_129" type="car" depart="272" from="-51962590#2" to="-51962352" />
    <trip id="veh_130" type="car" depart="275" from="-1227883882" to="-51962707#1" />
    <trip id="veh_131" type="car" depart="276" from="525739739" to="-51962697#1" />
    <trip id="veh_132" type="car" depart="278" from="1227603556#2" to="51962610#0" />
    <trip id="veh_133" type="car" depart="279" from="-51962697#1" to="-51962712" />
    <trip id="veh_134" type="car" depart="281" from="-1228099685#1" to="51962351" />
    <trip id="veh_135" type="car" depart="284" from="-894853354" to="-51962595#2" />
    <trip id="veh_136" type="car" depart="287" from="482053591" to="-51962699#1" />
    <trip id="veh_137" type="car" depart="290" from="51962705#2" to="51962610#1" />
    <trip id="veh_138" type="car" depart="291" from="51962572" to="-1227603550#1" />
    <trip id="veh_139" type="car" depart="294" from="51962606#2" to="51962722" />
    <trip id="veh_140" type="car" depart="296" from="894853410" to="1228099685#0" />
    <trip id="veh_141" type="car" depart="300" from="1228099684" to="51962387#0" />
    <trip id="veh_142" type="car" depart="303" from="51962716#2" to="1227603549#1" />
    <trip id="veh_143" type="car" depart="307" from="750471837#3" to="51962387#1" />
    <trip id="veh_144" type="car" depart="308" from="107366880#4" to="51962595#1" />
    <trip id="veh_145" type="car" depart="310" from="1228099687#0" to="-1190551138" />
    <trip id="veh_146" type="car" depart="312" from="1227603549#0" to="51962700#1" />
    <trip id="veh_147" type="car" depart="313" from="1227603549#0" to="53960645#0" />
    <trip id="veh_148" type="car" depart="315" from="-1227603551#1" to="-51962631#3" />
    <trip id="veh_149" type="car" depart="316" from="51962700#0" to="1227603549#1" />
    <trip id="veh_150" type="car" depart="317" from="51962610#0" to="525739739" />
    <trip id="veh_151" type="car" depart="319" from="51962541#0" to="51962590#2" />
    <trip id="veh_152" type="car" depart="321" from="1227603551#1" to="1190515159#1" />
    <trip id="veh_153" type="car" depart="322" from="-525739739" to="51962355#2" />
    <trip id="veh_154" type="car" depart="323" from="-51962729#0" to="-525739739" />
    <trip id="veh_155" type="car" depart="324" from="53960645#4" to="1228099687#0" />
    <trip id="veh_156" type="car" depart="328" from="-51962631#7" to="-749930242" />
    <trip id="veh_157" type="car" depart="329" from="51962606#1" to="-51962717#2" />
    <trip id="veh_158" type="car" depart="330" from="-51962700#0" to="1228099685#2" />
    <trip id="veh_159" type="car" depart="331" from="-51962544" to="409566598" />
    <trip id="veh_160" type="car" depart="333" from="750471837#1" to="-51962659#0" />
    <trip id="veh_161" type="car" depart="336" from="51962709" to="51962572" />
    <trip id="veh_162" type="car" depart="337" from="-51962388" to="1227603551#2" />
    <trip id="veh_163" type="car" depart="339" from="-51962581#4" to="51962699#2" />
    <trip id="veh_164" type="car" depart="340" from="-51962544" to="-51962707#0" />
    <trip id="veh_165" type="car" depart="341" from="51962344#0" to="-51962606#4" />
    <trip id="veh_166" type="car" depart="343" from="51962703#0" to="1189099248#7" />
    <trip id="veh_167" type="car" depart="345" from="51962712" to="409566601#0" />
    <trip id="veh_168" type="car" depart="348" from="-51962572" to="-51962631#6" />
    <trip id="veh_169" type="car" depart="350" from="107366880#4" to="1228099673#1" />
    <trip id="veh_170" type="car" depart="352" from="-51962716#4" to="-51962595#2" />
    <trip id="veh_171" type="car" depart="353" from="51962700#2" to="51962716#2" />
    <trip id="veh_172" type="car" depart="355" from="-51962344#1" to="1190515159#1" />
    <trip id="veh_173" type="car" depart="356" from="1340532651" to="51962717#1" />
    <trip id="veh_174" type="car" depart="357" from="1190536671" to="1228099673#1" />
    <trip id="veh_175" type="car" depart="362" from="1189099248#7" to="-51962705#2" />
    <trip id="veh_176" type="car" depart="365" from="-51962713" to="51962350#0" />
    <trip id="veh_177" type="car" depart="369" from="525739382" to="51962344#0" />
    <trip id="veh_178" type="car" depart="373" from="-51962606#2" to="-51962352" />
    <trip id="veh_179" type="car" depart="377" from="1190515158" to="-1227883882" />
    <trip id="veh_180" type="car" depart="380" from="-51962352" to="-51962717#0" />
    <trip id="veh_181" type="car" depart="381" from="51962712" to="1228099687#1" />
    <trip id="veh_182" type="car" depart="382" from="51962708#1" to="750471837#1" />
    <trip id="veh_183" type="car" depart="384" from="51962700#2" to="51962541#1" />
    <trip id="veh_184" type="car" depart="385" from="-51962659#1" to="-51962709" />
    <trip id="veh_185" type="car" depart="386" from="750471837#3" to="364027516" />
    <trip id="veh_186" type="car" depart="388" from="-51962350#2" to="51962717#1" />
    <trip id="veh_187" type="car" depart="389" from="1227603551#2" to="51962387#0" />
    <trip id="veh_188" type="car" depart="390" from="51962699#3" to="759927383#2" />
    <trip id="veh_189" type="car" depart="392" from="51962729#0" to="51962702#0" />
    <trip id="veh_190" type="car" depart="393" from="894853354" to="51962606#2" />
    <trip id="veh_191" type="car" depart="395" from="51962712" to="-51962388" />
    <trip id="veh_192" type="car" depart="396" from="-51962700#3" to="364027516" />
    <trip id="veh_193" type="car" depart="397" from="53960645#5" to="-51962699#2" />
    <trip id="veh_194" type="car" depart="398" from="1227603545#5" to="-51962708#2" />
    <trip id="veh_195" type="car" depart="399" from="-1227603550#2" to="51962700#1" />
    <trip id="veh_196" type="car" depart="400" from="-51962697#1" to="51962729#0" />
    <trip id="veh_197" type="car" depart="403" from="409566598" to="756028261" />
    <trip id="veh_198" type="car" depart="405" from="53960645#4" to="525739738#1" />
    <trip id="veh_199" type="car" depart="406" from="-51962705#0" to="51962631#8" />
    <trip id="veh_200" type="car" depart="407" from="756028261" to="-51962702#1" />
    <trip id="veh_201" type="car" depart="409" from="51962702#1" to="51962572" />
    <trip id="veh_202" type="car" depart="413" from="409566601#0" to="559245100#0" />
    <trip id="veh_203" type="car" depart="415" from="53960645#4" to="51962579" />
    <trip id="veh_204" type="car" depart="416" from="51962631#5" to="51962717#2" />
    <trip id="veh_205" type="car" depart="420" from="51962631#8" to="1190536671" />
    <trip id="veh_206" type="car" depart="422" from="51962368" to="525739739" />
    <trip id="veh_207" type="car" depart="425" from="-51962707#0" to="750471837#3" />
    <trip id="veh_208" type="car" depart="427" from="51962541#0" to="-51962631#7" />
    <trip id="veh_209" type="car" depart="429" from="51962717#2" to="-1227603550#2" />
    <trip id="veh_210" type="car" depart="431" from="-51962708#0" to="-51962595#2" />
    <trip id="veh_211" type="car" depart="432" from="1228099673#1" to="51962557" />
    <trip id="veh_212" type="car" depart="434" from="-51962606#2" to="51962389" />
    <trip id="veh_213" type="car" depart="437" from="51962368" to="53960645#6" />
    <trip id="veh_214" type="car" depart="439" from="-51962590#2" to="1190536688" />
    <trip id="veh_215" type="car" depart="444" from="-51962631#6" to="-51962631#7" />
    <trip id="veh_216" type="car" depart="445" from="409566601#1" to="-1228099685#2" />
    <trip id="veh_217" type="car" depart="446" from="-51962546" to="409566600#0" />
    <trip id="veh_218" type="car" depart="447" from="51962707#0" to="-51962705#0" />
    <trip id="veh_219" type="car" depart="448" from="51962700#3" to="-51962718" />
    <trip id="veh_220" type="car" depart="449" from="-51962606#1" to="51962631#7" />
    <trip id="veh_221" type="car" depart="451" from="-51962703#3" to="1190515159#1" />
    <trip id="veh_222" type="car" depart="452" from="1227603556#0" to="51962722" />
    <trip id="veh_223" type="car" depart="453" from="-1190536688" to="51962732" />
    <trip id="veh_224" type="car" depart="456" from="51962712" to="51962579" />
    <trip id="veh_225" type="car" depart="458" from="51962705#0" to="1227603551#1" />
    <trip id="veh_226" type="car" depart="459" from="482053591" to="-894853354" />
    <trip id="veh_227" type="car" depart="462" from="51962631#7" to="51962606#0" />
    <trip id="veh_228" type="car" depart="465" from="51962697#2" to="1228099685#2" />
    <trip id="veh_229" type="car" depart="466" from="-51962387#0" to="750471837#4" />
    <trip id="veh_230" type="car" depart="470" from="51962590#2" to="107627052" />
    <trip id="veh_231" type="car" depart="480" from="51962709" to="-51962350#0" />
    <trip id="veh_232" type="car" depart="483" from="409566600#1" to="51962388" />
    <trip id="veh_233" type="car" depart="485" from="-51962700#3" to="51962606#4" />
    <trip id="veh_234" type="car" depart="489" from="53960645#3" to="409566600#1" />
    <trip id="veh_235" type="car" depart="491" from="-51962697#1" to="525739382" />
    <trip id="veh_236" type="car" depart="493" from="1189099248#7" to="51962699#0" />
    <trip id="veh_237" type="car" depart="496" from="51962697#2" to="-1227603550#2" />
    <trip id="veh_238" type="car" depart="497" from="-51962699#3" to="51962717#1" />
    <trip id="veh_239" type="car" depart="498" from="1228099670" to="51962631#7" />
    <trip id="veh_240" type="car" depart="501" from="1190536671" to="525739738#1" />
    <trip id="veh_241" type="car" depart="502" from="51962388" to="107644626" />
    <trip id="veh_242" type="car" depart="505" from="482053591" to="51962700#2" />
    <trip id="veh_243" type="car" depart="506" from="-51962372#2" to="-51962351" />
    <trip id="veh_244" type="car" depart="507" from="750471837#2" to="-51962697#2" />
    <trip id="veh_245" type="car" depart="508" from="-51962702#1" to="51962659#2" />
    <trip id="veh_246" type="car" depart="509" from="51962703#1" to="-51962708#0" />
    <trip id="veh_247" type="car" depart="515" from="51962610#1" to="107627051" />
    <trip id="veh_248" type="car" depart="516" from="1190536688" to="51962606#2" />
    <trip id="veh_249" type="car" depart="517" from="51962610#0" to="51962606#0" />
    <trip id="veh_250" type="car" depart="518" from="1228099687#0" to="-525739382" />
    <trip id="veh_251" type="car" depart="522" from="107366880#4" to="-1227883882" />
    <trip id="veh_252" type="car" depart="523" from="51962541#1" to="1227603549#1" />
    <trip id="veh_253" type="car" depart="526" from="107366880#2" to="107627047" />
    <trip id="veh_254" type="car" depart="528" from="-51962705#1" to="-1190515158" />
    <trip id="veh_255" type="car" depart="529" from="-51962705#0" to="-51962700#2" />
    <trip id="veh_256" type="car" depart="532" from="-1228099685#1" to="-51962700#3" />
    <trip id="veh_257" type="car" depart="533" from="1190551138" to="51962387#0" />
    <trip id="veh_258" type="car" depart="534" from="1228099673#1" to="-51962388" />
    <trip id="veh_259" type="car" depart="535" from="51962703#2" to="-51962697#1" />
    <trip id="veh_260" type="car" depart="537" from="51962606#2" to="759927383#1" />
    <trip id="veh_261" type="car" depart="539" from="107644626" to="-51962355#2" />
    <trip id="veh_262" type="car" depart="543" from="-51962344#0" to="-51962579" />
    <trip id="veh_263" type="car" depart="546" from="-51962674#0" to="750471837#1" />
    <trip id="veh_264" type="car" depart="548" from="-51962606#2" to="51962372#3" />
    <trip id="veh_265" type="car" depart="550" from="1228099685#2" to="51962387#1" />
    <trip id="veh_266" type="car" depart="551" from="409566600#0" to="51962717#1" />
    <trip id="veh_267" type="car" depart="553" from="-51962697#1" to="107627047" />
    <trip id="veh_268" type="car" depart="554" from="1189297793" to="51962702#0" />
    <trip id="veh_269" type="car" depart="555" from="51962717#1" to="51962699#1" />
    <trip id="veh_270" type="car" depart="556" from="-51962631#4" to="51962352" />
    <trip id="veh_271" type="car" depart="557" from="1227603556#0" to="51962631#3" />
    <trip id="veh_272" type="car" depart="560" from="-51962631#2" to="-51962606#4" />
    <trip id="veh_273" type="car" depart="561" from="-51962631#5" to="51962631#1" />
    <trip id="veh_274" type="car" depart="566" from="-51962699#2" to="51962700#3" />
    <trip id="veh_275" type="car" depart="567" from="51962703#3" to="-51962388" />
    <trip id="veh_276" type="car" depart="570" from="750471838#5" to="107366880#4" />
    <trip id="veh_277" type="car" depart="571" from="53960645#3" to="1118219312" />
    <trip id="veh_278" type="car" depart="573" from="51962610#0" to="-51962697#1" />
    <trip id="veh_279" type="car" depart="582" from="1228099673#2" to="-1228099685#2" />
    <trip id="veh_280" type="car" depart="583" from="51962350#2" to="51962557" />
    <trip id="veh_281" type="car" depart="584" from="-51962718" to="-51962703#3" />
    <trip id="veh_282" type="car" depart="586" from="-51962703#2" to="-51962344#0" />
    <trip id="veh_283" type="car" depart="587" from="107627047" to="51962631#4" />
    <trip id="veh_284" type="car" depart="588" from="51962572" to="-51962708#1" />
    <trip id="veh_285" type="car" depart="589" from="51962387#1" to="-51962606#4" />
    <trip id="veh_286" type="car" depart="591" from="-51962387#0" to="-51962606#2" />
    <trip id="veh_287" type="car" depart="592" from="51962705#0" to="53960645#5" />
    <trip id="veh_288" type="car" depart="594" from="107627047" to="759927383#1" />
    <trip id="veh_289" type="car" depart="595" from="51962707#0" to="-51962674#1" />
    <trip id="veh_290" type="car" depart="596" from="53960645#6" to="51962350#0" />
    <trip id="veh_291" type="car" depart="597" from="51962697#2" to="-51962546" />
    <trip id="veh_292" type="car" depart="598" from="482053591" to="107366880#4" />
    <trip id="veh_293" type="car" depart="601" from="-51962699#1" to="-1190536671" />
    <trip id="veh_294" type="car" depart="602" from="51962707#0" to="-51962717#0" />
    <trip id="veh_295" type="car" depart="603" from="1190515158" to="750471838#1" />
    <trip id="veh_296" type="car" depart="606" from="51962699#0" to="-51962355#0" />
    <trip id="veh_297" type="car" depart="607" from="51962722" to="-51962606#0" />
    <trip id="veh_298" type="car" depart="612" from="-51962697#1" to="51962700#0" />
    <trip id="veh_299" type="car" depart="613" from="51962387#1" to="-51962716#3" />
    <trip id="veh_300" type="car" depart="618" from="-51962659#2" to="1227603549#1" />
    <trip id="veh_301" type="car" depart="619" from="51962699#2" to="-51962606#1" />
    <trip id="veh_302" type="car" depart="620" from="51962350#2" to="51962557" />
    <trip id="veh_303" type="car" depart="621" from="-51962716#1" to="-51962606#0" />
    <trip id="veh_304" type="car" depart="623" from="759927383#0" to="-749930242" />
    <trip id="veh_305" type="car" depart="625" from="-51962705#1" to="1190536688" />
    <trip id="veh_306" type="car" depart="626" from="1227603556#2" to="-894853354" />
    <trip id="veh_307" type="car" depart="627" from="-51962707#1" to="-51962595#2" />
    <trip id="veh_308" type="car" depart="628" from="750471837#2" to="51962729#1" />
    <trip id="veh_309" type="car" depart="631" from="51962387#0" to="51962355#2" />
    <trip id="veh_310" type="car" depart="632" from="-51962590#1" to="525739383#0" />
    <trip id="veh_311" type="car" depart="633" from="51962344#0" to="1228099685#2" />
    <trip id="veh_312" type="car" depart="635" from="-51962595#1" to="51962350#2" />
    <trip id="veh_313" type="car" depart="636" from="-51962351" to="-51962557" />
    <trip id="veh_314" type="car" depart="637" from="1392385901" to="-51962606#0" />
    <trip id="veh_315" type="car" depart="640" from="750471838#5" to="51962631#8" />
    <trip id="veh_316" type="car" depart="641" from="-51962355#0" to="51962716#2" />
    <trip id="veh_317" type="car" depart="644" from="53960645#0" to="750471838#1" />
    <trip id="veh_318" type="car" depart="645" from="-51962579" to="51962716#2" />
    <trip id="veh_319" type="car" depart="646" from="51962576#0" to="-51962606#4" />
    <trip id="veh_320" type="car" depart="648" from="1227603550#0" to="51962708#2" />
    <trip id="veh_321" type="car" depart="652" from="1340532651" to="51962659#2" />
    <trip id="veh_322" type="car" depart="653" from="51962557" to="-51962388" />
    <trip id="veh_323" type="car" depart="656" from="-51962631#4" to="51962659#1" />
    <trip id="veh_324" type="car" depart="657" from="-51962705#2" to="51962541#1" />
    <trip id="veh_325" type="car" depart="658" from="-51962703#2" to="51962590#0" />
    <trip id="veh_326" type="car" depart="659" from="51962674#2" to="-51962700#2" />
    <trip id="veh_327" type="car" depart="662" from="51962631#4" to="51962389" />
    <trip id="veh_328" type="car" depart="670" from="51962606#2" to="-1227603551#2" />
    <trip id="veh_329" type="car" depart="671" from="-51962718" to="107627046#3" />
    <trip id="veh_330" type="car" depart="672" from="53960645#5" to="-525739739" />
    <trip id="veh_331" type="car" depart="673" from="-51962703#0" to="-51962708#0" />
    <trip id="veh_332" type="car" depart="674" from="-51962631#7" to="750471838#5" />
    <trip id="veh_333" type="car" depart="678" from="51962546" to="-51962700#3" />
    <trip id="veh_334" type="car" depart="680" from="-51962718" to="-51962713" />
    <trip id="veh_335" type="car" depart="682" from="51962606#3" to="1190551138" />
    <trip id="veh_336" type="car" depart="687" from="1227603545#5" to="51962350#2" />
    <trip id="veh_337" type="car" depart="691" from="51962709" to="51962729#0" />
    <trip id="veh_338" type="car" depart="695" from="-51962709" to="-894853355" />
    <trip id="veh_339" type="car" depart="697" from="1227603551#1" to="-51962388" />
    <trip id="veh_340" type="car" depart="701" from="759927383#3" to="-51962699#3" />
    <trip id="veh_341" type="car" depart="702" from="-51962709" to="1228099685#1" />
    <trip id="veh_342" type="car" depart="703" from="759927383#1" to="-51962705#1" />
    <trip id="veh_343" type="car" depart="705" from="107644626" to="51962716#2" />
    <trip id="veh_344" type="car" depart="708" from="51962697#2" to="750471838#3" />
    <trip id="veh_345" type="car" depart="709" from="51962659#1" to="-51962606#2" />
    <trip id="veh_346" type="car" depart="710" from="-1228099685#2" to="51962372#1" />
    <trip id="veh_347" type="car" depart="715" from="1392385901" to="525739738#1" />
    <trip id="veh_348" type="car" depart="717" from="525739383#0" to="51962716#0" />
    <trip id="veh_349" type="car" depart="720" from="107627047" to="-51962705#2" />
    <trip id="veh_350" type="car" depart="724" from="364027516" to="1190551138" />
    <trip id="veh_351" type="car" depart="725" from="-51962372#3" to="1227603545#5" />
    <trip id="veh_352" type="car" depart="726" from="51962718" to="-51962581#1" />
    <trip id="veh_353" type="car" depart="727" from="750471838#0" to="-1227603551#1" />