<?xml version='1.0' encoding='UTF-8'?>
<routes>
  <vType id="car" accel="1.8" decel="4.5" length="5.0" minGap="2.5" sigma="0.3" maxSpeed="13.9" speedDev="0.15" speedFactor="0.95" guiShape="passenger" />
  <!--
===============================================================
TRIPS FIJOS: EXACTAMENTE 3000 VEHICULOS
Generado con seed=42 para reproducibilidad total
Rango temporal: 0-5400s (90.0 minutos)
Todos los modelos enfrentaran EXACTAMENTE los mismos 3000 vehiculos
===============================================================
-->
  <trip id="veh_2293" type="car" depart="1.06" from="E_to_C" to="C_to_N" departLane="best" departSpeed="random" />
  <trip id="veh_1468" type="car" depart="3.69" from="E_to_C" to="C_to_W" departLane="best" departSpeed="random" />
  <trip id="veh_2245" type="car" depart="3.89" from="S_to_C" to="C_to_W" departLane="best" departSpeed="random" />
  <trip id="veh_2623" type="car" depart="4.55" from="S_to_C" to="C_to_N" departLane="best" departSpeed="random" />
  <trip id="veh_2496" type="car" depart="8.54" from="E_to_C" to="C_to_N" departLane="best" departSpeed="random" />
  <trip id="veh_186" type="car" depart="9.13" from="E_to_C" to="C_to_W" departLane="best" departSpeed="random" />
  <trip id="veh_1770" type="car" depart="11.86" from="S_to_C" to="C_to_N" departLane="best" departSpeed="random" />
  <trip id="veh_148" type="car" depart="19.15" from="E_to_C" to="C_to_W" departLane="best" departSpeed="random" />
  <trip id="veh_1523" type="car" depart="20.60" from="E_to_C" to="C_to_N" departLane="best" departSpeed="random" />
  <trip id="veh_2548" type="car" depart="22.19" from="E_to_C" to="C_to_N" departLane="best" departSpeed="random" />
  <trip id="veh_1654" type="car" depart="25.45" from="S_to_C" to="C_to_N" departLane="best" departSpeed="random" />
  <trip id="veh_909" type="car" depart="27.98" from="E_to_C" to="C_to_W" departLane="best" departSpeed="random" />
  <trip id="veh_1113" type="car" depart="28.05" from="S_to_C" to="C_to_N" departLane="best" departSpeed="random" />
  <trip id="veh_1836" type="car" depart="30.48" from="S_to_C" to="C_to_W" departLane="best" departSpeed="random" />
  <trip id="veh_570" type="car" depart="32.97" from="E_to_C" to="C_to_W" departLane="best" departSpeed="random" />
  <trip id="veh_2796" type="car" depart="34.29" from="E_to_C" to="C_to_W" departLane="best" departSpeed="random" />
  <trip id="veh_2296" type="car" depart="35.47" from="E_to_C" to="C_to_W" departLane="best" departSpeed="random" />
  <trip id="veh_1061" type="car" depart="35.71" from="S_to_C" to="C_to_W" departLane="best" departSpeed="random" />
  <trip id="veh_939" type="car" depart="36.88" from="S_to_C" to="C_to_W" departLane="best" departSpeed="random" />
  <trip id="veh_590" type="car" depart="41.51" from="S_to_C" to="C_to_N" departLane="best" departSpeed="random" />
  <trip id="veh_1371" type="car" depart="43.03" from="E_to_C" to="C_to_W" departLane="best" departSpeed="random" />
  <trip id="veh_1058" type="car" depart="49.36" from="S_to_C" to="C_to_W" departLane="best" departSpeed="random" />
  <trip id="veh_1289" type="car" depart="50.15" from="S_to_C" to="C_to_N" departLane="best" departSpeed="random" />
  <trip id="veh_128" type="car" depart="50.30" from="E_to_C" to="C_to_N" departLane="best" departSpeed="random" />
  <trip id="veh_1717" type="car" depart="52.23" from="E_to_C" to="C_to_W" departLane="best" departSpeed="random" />
  <trip id="veh_2037" type="car" depart="57.84" from="S_to_C" to="C_to_N" departLane="best" departSpeed="random" />
  <trip id="veh_2502" type="car" depart="61.01" from="E_to_C" to="C_to_W" departLane="best" departSpeed="random" />
  <trip id="veh_1745" type="car" depart="62.88" from="E_to_C" to="C_to_W" departLane="best" departSpeed="random" />
  <trip id="veh_2094" type="car" depart="63.83" from="E_to_C" to="C_to_W" departLane="best" departSpeed="random" />
  <trip id="veh_1062" type="car" depart="64.00" from="S_to_C" to="C_to_N" departLane="best" departSpeed="random" />
  <trip id="veh_2693" type="car" depart="64.06" from="S_to_C" to="C_to_W" departLane="best" departSpeed="random" />
  <trip id="veh_2707" type="car" depart="64.59" from="E_to_C" to="C_to_N" departLane="best" departSpeed="random" />
  <trip id="veh_2961" type="car" depart="65.83" from="S_to_C" to="C_to_N" departLane="best" departSpeed="random" />
  <trip id="veh_2460" type="car" depart="65.92" from="S_to_C" to="C_to_W" departLane="best" departSpeed="random" />
  <trip id="veh_1739" type="car" depart="66.75" from="E_to_C" to="C_to_W" departLane="best" departSpeed="random" />
  <trip id="veh_282" type="car" depart="68.32" from="S_to_C" to="C_to_W" departLane="best" departSpeed="random" />
  <trip id="veh_1704" type="car" depart="68.85" from="E_to_C" to="C_to_N" departLane="best" departSpeed="random" />
  <trip id="veh_1824" type="car" depart="70.01" from="S_to_C" to="C_to_N" departLane="best" departSpeed="random" />
  <trip id="veh_2264" type="car" depart="70.66" from="E_to_C" to="C_to_W" departLane="best" departSpeed="random" />
  <trip id="veh_2350" type="car" depart="74.16" from="E_to_C" to="C_to_N" departLane="best" departSpeed="random" />
  <trip id="veh_1323" type="car" depart="74.48" from="E_to_C" to="C_to_W" departLane="best" departSpeed="random" />
  <trip id="veh_480" type="car" depart="75.16" from="E_to_C" to="C_to_N" departLane="best" departSpeed="random" />
  <trip id="veh_932" type="car" depart="76.05" from="S_to_C" to="C_to_N" departLane="best" departSpeed="random" />
  <trip id="veh_2673" type="car" depart="76.70" from="E_to_C" to="C_to_N" departLane="best" departSpeed="random" />
  <trip id="veh_2777" type="car" depart="77.57" from="E_to_C" to="C_to_N" departLane="best" departSpeed="random" />
  <trip id="veh_2194" type="car" depart="79.51" from="E_to_C" to="C_to_W" departLane="best" departSpeed="random" />
  <trip id="veh_2218" type="car" depart="81.37" from="S_to_C" to="C_to_N" departLane="best" departSpeed="random" />
  <trip id="veh_418" type="car" depart="82.88" from="E_to_C" to="C_to_W" departLane="best" departSpeed="random" />
  <trip id="veh_1089" type="car" depart="84.55" from="E_to_C" to="C_to_W" departLane="best" departSpeed="random" />
  <trip id="veh_2865" type="car" depart="86.02" from="S_to_C" to="C_to_N" departLane="best" departSpeed="random" />
  <trip id="veh_1273" type="car" depart="87.92" from="E_to_C" to="C_to_W" departLane="best" departSpeed="random" />
  <trip id="veh_1322" type="car" depart="90.12" from="E_to_C" to="C_to_N" departLane="best" departSpeed="random" />
  <trip id="veh_1064" type="car" depart="92.57" from="S_to_C" to="C_to_W" departLane="best" departSpeed="random" />
  <trip id="veh_1665" type="car" depart="96.75" from="E_to_C" to="C_to_N" departLane="best" departSpeed="random" />
  <trip id="veh_1677" type="car" depart="103.27" from="E_to_C" to="C_to_W" departLane="best" departSpeed="random" />
  <trip id="veh_66" type="car" depart="105.17" from="S_to_C" to="C_to_N" departLane="best" departSpeed="random" />
  <trip id="veh_1467" type="car" depart="107.61" from="S_to_C" to="C_to_W" departLane="best" departSpeed="random" />
  <trip id="veh_604" type="car" depart="112.63" from="S_to_C" to="C_to_N" departLane="best" departSpeed="random" />
  <trip id="veh_2298" type="car" depart="117.19" from="S_to_C" to="C_to_N" departLane="best" departSpeed="random" />
  <trip id="veh_1424" type="car" depart="117.72" from="E_to_C" to="C_to_N" departLane="best" departSpeed="random" />
  <trip id="veh_454" type="car" depart="118.47" from="S_to_C" to="C_to_W" departLane="best" departSpeed="random" />
  <trip id="veh_2910" type="car" depart="119.00" from="E_to_C" to="C_to_W" departLane="best" departSpeed="random" />
  <trip id="veh_1972" type="car" depart="121.21" from="E_to_C" to="C_to_N" departLane="best" departSpeed="random" />
  <trip id="veh_2552" type="car" depart="121.39" from="S_to_C" to="C_to_N" departLane="best" departSpeed="random" />
  <trip id="veh_1184" type="car" depart="121.96" from="S_to_C" to="C_to_N" departLane="best" departSpeed="random" />
  <trip id="veh_2352" type="car" depart="122.84" from="E_to_C" to="C_to_W" departLane="best" departSpeed="random" />
  <trip id="veh_2711" type="car" depart="127.98" from="E_to_C" to="C_to_N" departLane="best" departSpeed="random" />
  <trip id="veh_1869" type="car" depart="128.27" from="S_to_C" to="C_to_N" departLane="best" departSpeed="random" />
  <trip id="veh_1378" type="car" depart="129.12" from="S_to_C" to="C_to_N" departLane="best" departSpeed="random" />
  <trip id="veh_208" type="car" depart="131.90" from="E_to_C" to="C_to_W" departLane="best" departSpeed="random" />
  <trip id="veh_1855" type="car" depart="133.41" from="S_to_C" to="C_to_N" departLane="best" departSpeed="random" />
  <trip id="veh_1809" type="car" depart="136.47" from="E_to_C" to="C_to_W" departLane="best" departSpeed="random" />
  <trip id="veh_766" type="car" depart="139.93" from="E_to_C" to="C_to_W" departLane="best" departSpeed="random" />
  <trip id="veh_1447" type="car" depart="140.74" from="E_to_C" to="C_to_W" departLane="best" departSpeed="random" />
  <trip id="veh_2402" type="car" depart="141.47" from="S_to_C" to="C_to_N" departLane="best" departSpeed="random" />
  <trip id="veh_2988" type="car" depart="153.59" from="S_to_C" to="C_to_N" departLane="best" departSpeed="random" />
  <trip id="veh_2155" type="car" depart="154.28" from="S_to_C" to="C_to_N" departLane="best" departSpeed="random" />
  <trip id="veh_567" type="car" depart="156.35" from="S_to_C" to="C_to_N" departLane="best" departSpeed="random" />
  <trip id="veh_1448" type="car" depart="158.24" from="S_to_C" to="C_to_N" departLane="best" departSpeed="random" />
  <trip id="veh_1102" type="car" depart="159.98" from="S_to_C" to="C_to_N" departLane="best" departSpeed="random" />
  <trip id="veh_5" type="car" depart="160.90" from="E_to_C" to="C_to_W" departLane="best" departSpeed="random" />
  <trip id="veh_1414" type="car" depart="167.84" from="S_to_C" to="C_to_W" departLane="best" departSpeed="random" />
  <trip id="veh_874" type="car" depart="170.48" from="E_to_C" to="C_to_N" departLane="best" departSpeed="random" />
  <trip id="veh_975" type="car" depart="171.37" from="S_to_C" to="C_to_W" departLane="best" departSpeed="random" />
  <trip id="veh_2839" type="car" depart="173.31" from="E_to_C" to="C_to_N" departLane="best" departSpeed="random" />
  <trip id="veh_991" type="car" depart="173.97" from="S_to_C" to="C_to_W" departLane="best" departSpeed="random" />
  <trip id="veh_2412" type="car" depart="174.04" from="E_to_C" to="C_to_N" departLane="best" departSpeed="random" />
  <trip id="veh_499" type="car" depart="176.67" from="S_to_C" to="C_to_N" departLane="best" departSpeed="random" />
  <trip id="veh_1589" type="car" depart="178.58" from="E_to_C" to="C_to_N" departLane="best" departSpeed="random" />
  <trip id="veh_464" type="car" depart="180.17" from="S_to_C" to="C_to_N" departLane="best" departSpeed="random" />
  <trip id="veh_2647" type="car" depart="180.69" from="E_to_C" to="C_to_N" departLane="best" departSpeed="random" />
  <trip id="veh_757" type="car" depart="187.91" from="E_to_C" to="C_to_N" departLane="best" departSpeed="random" />
  <trip id="veh_2760" type="car" depart="192.77" from="E_to_C" to="C_to_N" departLane="best" departSpeed="random" />
  <trip id="veh_1759" type="car" depart="193.49" from="E_to_C" to="C_to_N" departLane="best" departSpeed="random" />
  <trip id="veh_2470" type="car" depart="198.29" from="E_to_C" to="C_to_N" departLane="best" departSpeed="random" />
  <trip id="veh_728" type="car" depart="199.71" from="E_to_C" to="C_to_W" departLane="best" departSpeed="random" />
  <trip id="veh_2766" type="car" depart="200.03" from="E_to_C" to="C_to_N" departLane="best" departSpeed="random" />
  <trip id="veh_2310" type="car" depart="201.81" from="S_to_C" to="C_to_W" departLane="best" departSpeed="random" />
  <trip id="veh_1567" type="car" depart="202.31" from="S_to_C" to="C_to_N" departLane="best" departSpeed="random" />
  <trip id="veh_628" type="car" depart="203.08" from="S_to_C" to="C_to_N" departLane="best" departSpeed="random" />
  <trip id="veh_1870" type="car" depart="204.59" from="E_to_C" to="C_to_N" departLane="best" departSpeed="random" />
  <trip id="veh_181" type="car" depart="206.59" from="S_to_C" to="C_to_W" departLane="best" departSpeed="random" />
  <trip id="veh_695" type="car" depart="206.84" from="S_to_C" to="C_to_W" departLane="best" departSpeed="random" />
  <trip id="veh_1569" type="car" depart="209.43" from="S_to_C" to="C_to_N" departLane="best" departSpeed="random" />
  <trip id="veh_858" type="car" depart="210.14" from="S_to_C" to="C_to_N" departLane="best" departSpeed="random" />
  <trip id="veh_639" type="car" depart="211.37" from="S_to_C" to="C_to_W" departLane="best" departSpeed="random" />
  <trip id="veh_2371" type="car" depart="214.66" from="S_to_C" to="C_to_N" departLane="best" departSpeed="random" />
  <trip id="veh_1324" type="car" depart="215.07" from="E_to_C" to="C_to_N" departLane="best" departSpeed="random" />
  <trip id="veh_1838" type="car" depart="215.68" from="S_to_C" to="C_to_N" departLane="best" departSpeed="random" />
  <trip id="veh_2855" type="car" depart="216.32" from="S_to_C" to="C_to_W" departLane="best" departSpeed="random" />
  <trip id="veh_2927" type="car" depart="222.22" from="S_to_C" to="C_to_N" departLane="best" departSpeed="random" />
  <trip id="veh_2979" type="car" depart="228.06" from="S_to_C" to="C_to_N" departLane="best" departSpeed="random" />
  <trip id="veh_2820" type="car" depart="233.91" from="E_to_C" to="C_to_N" departLane="best" departSpeed="random" />
  <trip id="veh_716" type="car" depart="235.09" from="S_to_C" to="C_to_W" departLane="best" departSpeed="random" />
  <trip id="veh_411" type="car" depart="235.70" from="S_to_C" to="C_to_W" departLane="best" departSpeed="random" />
  <trip id="veh_2256" type="car" depart="236.40" from="E_to_C" to="C_to_W" departLane="best" departSpeed="random" />
  <trip id="veh_729" type="car" depart="236.55" from="E_to_C" to="C_to_W" departLane="best" departSpeed="random" />
  <trip id="veh_1387" type="car" depart="237.06" from="E_to_C" to="C_to_W" departLane="best" departSpeed="random" />
  <trip id="veh_2450" type="car" depart="237.09" from="E_to_C" to="C_to_W" departLane="best" departSpeed="random" />
  <trip id="veh_1356" type="car" depart="237.80" from="E_to_C" to="C_to_N" departLane="best" departSpeed="random" />
  <trip id="veh_1534" type="car" depart="240.93" from="S_to_C" to="C_to_W" departLane="best" departSpeed="random" />
  <trip id="veh_1183" type="car" depart="241.29" from="E_to_C" to="C_to_N" departLane="best" departSpeed="random" />
  <trip id="veh_2344" type="car" depart="242.34" from="E_to_C" to="C_to_W" departLane="best" departSpeed="random" />
  <trip id="veh_971" type="car" depart="244.56" from="S_to_C" to="C_to_N" departLane="best" departSpeed="random" />
  <trip id="veh_588" type="car" depart="245.25" from="S_to_C" to="C_to_W" departLane="best" departSpeed="random" />
  <trip id="veh_22" type="car" depart="247.45" from="E_to_C" to="C_to_W" departLane="best" departSpeed="random" />
  <trip id="veh_1272" type="car" depart="248.09" from="S_to_C" to="C_to_W" departLane="best" departSpeed="random" />
  <trip id="veh_704" type="car" depart="257.85" from="S_to_C" to="C_to_W" departLane="best" departSpeed="random" />
  <trip id="veh_1686" type="car" depart="260.47" from="E_to_C" to="C_to_N" departLane="best" departSpeed="random" />
  <trip id="veh_2468" type="car" depart="264.16" from="E_to_C" to="C_to_W" departLane="best" departSpeed="random" />
  <trip id="veh_2473" type="car" depart="264.77" from="S_to_C" to="C_to_W" departLane="best" departSpeed="random" />
  <trip id="veh_2262" type="car" depart="265.06" from="E_to_C" to="C_to_W" departLane="best" departSpeed="random" />
  <trip id="veh_1600" type="car" depart="268.12" from="E_to_C" to="C_to_W" departLane="best" departSpeed="random" />
  <trip id="veh_114" type="car" depart="270.77" from="S_to_C" to="C_to_W" departLane="best" departSpeed="random" />
  <trip id="veh_217" type="car" depart="271.18" from="E_to_C" to="C_to_W" departLane="best" departSpeed="random" />
  <trip id="veh_840" type="car" depart="272.92" from="S_to_C" to="C_to_W" departLane="best" departSpeed="random" />
  <trip id="veh_509" type="car" depart="273.12" from="S_to_C" to="C_to_N" departLane="best" departSpeed="random" />
  <trip id="veh_102" type="car" depart="273.18" from="E_to_C" to="C_to_N" departLane="best" departSpeed="random" />
  <trip id="veh_829" type="car" depart="273.27" from="S_to_C" to="C_to_W" departLane="best" departSpeed="random" />
  <trip id="veh_1429" type="car" depart="273.44" from="S_to_C" to="C_to_W" departLane="best" departSpeed="random" />
  <trip id="veh_847" type="car" depart="276.25" from="E_to_C" to="C_to_W" departLane="best" departSpeed="random" />
  <trip id="veh_1022" type="car" depart="278.30" from="S_to_C" to="C_to_W" departLane="best" departSpeed="random" />
  <trip id="veh_1282" type="car" depart="279.65" from="S_to_C" to="C_to_N" departLane="best" departSpeed="random" />
  <trip id="veh_2687" type="car" depart="283.63" from="S_to_C" to="C_to_W" departLane="best" departSpeed="random" />
  <trip id="veh_1810" type="car" depart="286.55" from="E_to_C" to="C_to_N" departLane="best" departSpeed="random" />
  <trip id="veh_2360" type="car" depart="286.66" from="E_to_C" to="C_to_N" departLane="best" departSpeed="random" />
  <trip id="veh_689" type="car" depart="287.59" from="S_to_C" to="C_to_N" departLane="best" departSpeed="random" />
  <trip id="veh_1098" type="car" depart="289.96" from="S_to_C" to="C_to_W" departLane="best" departSpeed="random" />
  <trip id="veh_2817" type="car" depart="291.75" from="S_to_C" to="C_to_N" departLane="best" departSpeed="random" />
  <trip id="veh_1647" type="car" depart="291.93" from="E_to_C" to="C_to_W" departLane="best" departSpeed="random" />
  <trip id="veh_2318" type="car" depart="292.29" from="E_to_C" to="C_to_N" departLane="best" departSpeed="random" />
  <trip id="veh_2087" type="car" depart="292.40" from="S_to_C" to="C_to_W" departLane="best" departSpeed="random" />
  <trip id="veh_1871" type="car" depart="293.05" from="S_to_C" to="C_to_N" departLane="best" departSpeed="random" />
  <trip id="veh_2685" type="car" depart="293.36" from="S_to_C" to="C_to_N" departLane="best" departSpeed="random" />
  <trip id="veh_2833" type="car" depart="293.43" from="S_to_C" to="C_to_W" departLane="best" departSpeed="random" />
  <trip id="veh_2469" type="car" depart="297.35" from="S_to_C" to="C_to_N" departLane="best" departSpeed="random" />
  <trip id="veh_1352" type="car" depart="299.37" from="E_to_C" to="C_to_W" departLane="best" departSpeed="random" />
  <trip id="veh_1976" type="car" depart="301.92" from="S_to_C" to="C_to_N" departLane="best" departSpeed="random" />
  <trip id="veh_2200" type="car" depart="302.61" from="S_to_C" to="C_to_W" departLane="best" departSpeed="random" />
  <trip id="veh_1078" type="car" depart="303.02" from="E_to_C" to="C_to_N" departLane="best" departSpeed="random" />
  <trip id="veh_1466" type="car" depart="303.31" from="E_to_C" to="C_to_W" departLane="best" departSpeed="random" />
  <trip id="veh_116" type="car" depart="307.15" from="E_to_C" to="C_to_N" departLane="best" departSpeed="random" />
  <trip id="veh_2712" type="car" depart="307.16" from="E_to_C" to="C_to_W" departLane="best" departSpeed="random" />
  <trip id="veh_1336" type="car" depart="312.69" from="E_to_C" to="C_to_N" departLane="best" departSpeed="random" />
  <trip id="veh_1449" type="car" depart="316.39" from="S_to_C" to="C_to_W" departLane="best" departSpeed="random" />
  <trip id="veh_1471" type="car" depart="321.60" from="E_to_C" to="C_to_W" departLane="best" departSpeed="random" />
  <trip id="veh_354" type="car" depart="322.05" from="S_to_C" to="C_to_N" departLane="best" departSpeed="random" />
  <trip id="veh_2227" type="car" depart="322.79" from="E_to_C" to="C_to_W" departLane="best" departSpeed="random" />
  <trip id="veh_2116" type="car" depart="324.20" from="S_to_C" to="C_to_N" departLane="best" departSpeed="random" />
  <trip id="veh_504" type="car" depart="326.97" from="S_to_C" to="C_to_N" departLane="best" departSpeed="random" />
  <trip id="veh_95" type="car" depart="327.31" from="S_to_C" to="C_to_N" departLane="best" departSpeed="random" />
  <trip id="veh_532" type="car" depart="328.46" from="S_to_C" to="C_to_W" departLane="best" departSpeed="random" />
  <trip id="veh_1005" type="car" depart="329.17" from="E_to_C" to="C_to_W" departLane="best" departSpeed="random" />
  <trip id="veh_1439" type="car" depart="329.29" from="S_to_C" to="C_to_N" departLane="best" departSpeed="random" />
  <trip id="veh_2664" type="car" depart="331.66" from="S_to_C" to="C_to_W" departLane="best" departSpeed="random" />
  <trip id="veh_958" type="car" depart="333.49" from="E_to_C" to="C_to_W" departLane="best" departSpeed="random" />
  <trip id="veh_237" type="car" depart="336.23" from="S_to_C" to="C_to_W" departLane="best" departSpeed="random" />
  <trip id="veh_2622" type="car" depart="337.02" from="E_to_C" to="C_to_N" departLane="best" departSpeed="random" />
  <trip id="veh_706" type="car" depart="339.16" from="S_to_C" to="C_to_W" departLane="best" departSpeed="random" />
  <trip id="veh_727" type="car" depart="340.74" from="S_to_C" to="C_to_W" departLane="best" departSpeed="random" />
  <trip id="veh_2783" type="car" depart="340.79" from="E_to_C" to="C_to_W" departLane="best" departSpeed="random" />
  <trip id="veh_1128" type="car" depart="341.64" from="S_to_C" to="C_to_W" departLane="best" departSpeed="random" />
  <trip id="veh_80" type="car" depart="345.74" from="E_to_C" to="C_to_N" departLane="best" departSpeed="random" />
  <trip id="veh_2585" type="car" depart="352.97" from="E_to_C" to="C_to_N" departLane="best" departSpeed="random" />
  <trip id="veh_1585" type="car" depart="354.33" from="S_to_C" to="C_to_W" departLane="best" departSpeed="random" />
  <trip id="veh_538" type="car" depart="354.68" from="S_to_C" to="C_to_N" departLane="best" departSpeed="random" />
  <trip id="veh_788" type="car" depart="355.04" from="S_to_C" to="C_to_W" departLane="best" departSpeed="random" />
  <trip id="veh_645" type="car" depart="355.92" from="E_to_C" to="C_to_N" departLane="best" departSpeed="random" />
  <trip id="veh_2972" type="car" depart="357.03" from="S_to_C" to="C_to_W" departLane="best" departSpeed="random" />
  <trip id="veh_2523" type="car" depart="357.55" from="E_to_C" to="C_to_W" departLane="best" departSpeed="random" />
  <trip id="veh_2361" type="car" depart="359.63" from="S_to_C" to="C_to_N" departLane="best" departSpeed="random" />
  <trip id="veh_550" type="car" depart="362.52" from="E_to_C" to="C_to_N" departLane="best" departSpeed="random" />
  <trip id="veh_2062" type="car" depart="364.79" from="E_to_C" to="C_to_W" departLane="best" departSpeed="random" />
  <trip id="veh_714" type="car" depart="365.47" from="E_to_C" to="C_to_N" departLane="best" departSpeed="random" />
  <trip id="veh_1057" type="car" depart="367.03" from="E_to_C" to="C_to_W" departLane="best" departSpeed="random" />
  <trip id="veh_1298" type="car" depart="369.42" from="E_to_C" to="C_to_N" departLane="best" departSpeed="random" />
  <trip id="veh_512" type="car" depart="370.49" from="E_to_C" to="C_to_W" departLane="best" departSpeed="random" />
  <trip id="veh_2242" type="car" depart="371.93" from="E_to_C" to="C_to_W" departLane="best" departSpeed="random" />
  <trip id="veh_572" type="car" depart="375.76" from="E_to_C" to="C_to_N" departLane="best" departSpeed="random" />
  <trip id="veh_2607" type="car" depart="375.88" from="E_to_C" to="C_to_N" departLane="best" departSpeed="random" />
  <trip id="veh_2735" type="car" depart="380.23" from="S_to_C" to="C_to_N" departLane="best" departSpeed="random" />
  <trip id="veh_1292" type="car" depart="382.47" from="S_to_C" to="C_to_W" departLane="best" departSpeed="random" />
  <trip id="veh_2824" type="car" depart="382.64" from="E_to_C" to="C_to_W" departLane="best" departSpeed="random" />
  <trip id="veh_83" type="car" depart="383.36" from="E_to_C" to="C_to_N" departLane="best" departSpeed="random" />
  <trip id="veh_349" type="car" depart="384.37" from="E_to_C" to="C_to_W" departLane="best" departSpeed="random" />
  <trip id="veh_2564" type="car" depart="384.71" from="S_to_C" to="C_to_N" departLane="best" departSpeed="random" />
  <trip id="veh_2201" type="car" depart="385.48" from="S_to_C" to="C_to_W" departLane="best" departSpeed="random" />
  <trip id="veh_598" type="car" depart="389.21" from="E_to_C" to="C_to_N" departLane="best" departSpeed="random" />
  <trip id="veh_1841" type="car" depart="393.56" from="S_to_C" to="C_to_N" departLane="best" departSpeed="random" />
  <trip id="veh_129" type="car" depart="395.61" from="E_to_C" to="C_to_W" departLane="best" departSpeed="random" />
  <trip id="veh_536" type="car" depart="396.85" from="E_to_C" to="C_to_N" departLane="best" departSpeed="random" />
  <trip id="veh_849" type="car" depart="397.07" from="S_to_C" to="C_to_W" departLane="best" departSpeed="random" />
  <trip id="veh_445" type="car" depart="398.85" from="S_to_C" to="C_to_N" departLane="best" departSpeed="random" />
  <trip id="veh_1159" type="car" depart="399.41" from="S_to_C" to="C_to_W" departLane="best" departSpeed="random" />
  <trip id="veh_1509" type="car" depart="400.68" from="E_to_C" to="C_to_W" departLane="best" departSpeed="random" />
  <trip id="veh_420" type="car" depart="404.07" from="S_to_C" to="C_to_N" departLane="best" departSpeed="random" />
  <trip id="veh_1393" type="car" depart="404.08" from="E_to_C" to="C_to_N" departLane="best" departSpeed="random" />
  <trip id="veh_1748" type="car" depart="404.27" from="S_to_C" to="C_to_W" departLane="best" departSpeed="random" />
  <trip id="veh_753" type="car" depart="405.22" from="S_to_C" to="C_to_W" departLane="best" departSpeed="random" />
  <trip id="veh_153" type="car" depart="406.32" from="E_to_C" to="C_to_W" departLane="best" departSpeed="random" />
  <trip id="veh_275" type="car" depart="410.38" from="E_to_C" to="C_to_W" departLane="best" departSpeed="random" />
  <trip id="veh_2069" type="car" depart="410.56" from="E_to_C" to="C_to_W" departLane="best" departSpeed="random" />
  <trip id="veh_612" type="car" depart="412.45" from="E_to_C" to="C_to_N" departLane="best" departSpeed="random" />
  <trip id="veh_1964" type="car" depart="416.28" from="S_to_C" to="C_to_N" departLane="best" departSpeed="random" />
  <trip id="veh_957" type="car" depart="421.75" from="E_to_C" to="C_to_N" departLane="best" departSpeed="random" />
  <trip id="veh_1552" type="car" depart="423.19" from="S_to_C" to="C_to_W" departLane="best" departSpeed="random" />
  <trip id="veh_2311" type="car" depart="423.78" from="E_to_C" to="C_to_N" departLane="best" departSpeed="random" />
  <trip id="veh_19" type="car" depart="425.52" from="S_to_C" to="C_to_N" departLane="best" departSpeed="random" />
  <trip id="veh_1753" type="car" depart="425.69" from="S_to_C" to="C_to_W" departLane="best" departSpeed="random" />
  <trip id="veh_743" type="car" depart="426.21" from="E_to_C" to="C_to_W" departLane="best" departSpeed="random" />
  <trip id="veh_1330" type="car" depart="426.72" from="E_to_C" to="C_to_W" departLane="best" departSpeed="random" />
  <trip id="veh_2133" type="car" depart="427.20" from="S_to_C" to="C_to_N" departLane="best" departSpeed="random" />
  <trip id="veh_2465" type="car" depart="428.79" from="E_to_C" to="C_to_N" departLane="best" departSpeed="random" />
  <trip id="veh_2406" type="car" depart="429.17" from="S_to_C" to="C_to_W" departLane="best" departSpeed="random" />
  <trip id="veh_2751" type="car" depart="434.47" from="S_to_C" to="C_to_W" departLane="best" departSpeed="random" />
  <trip id="veh_811" type="car" depart="438.60" from="S_to_C" to="C_to_N" departLane="best" departSpeed="random" />
  <trip id="veh_1109" type="car" depart="443.01" from="E_to_C" to="C_to_W" departLane="best" departSpeed="random" />
  <trip id="veh_1328" type="car" depart="445.11" from="E_to_C" to="C_to_W" departLane="best" departSpeed="random" />
  <trip id="veh_2860" type="car" depart="448.69" from="E_to_C" to="C_to_N" departLane="best" departSpeed="random" />
  <trip id="veh_250" type="car" depart="453.32" from="S_to_C" to="C_to_W" departLane="best" departSpeed="random" />
  <trip id="veh_2150" type="car" depart="455.28" from="S_to_C" to="C_to_W" departLane="best" departSpeed="random" />
  <trip id="veh_2638" type="car" depart="457.18" from="S_to_C" to="C_to_W" departLane="best" departSpeed="random" />
  <trip id="veh_2328" type="car" depart="459.43" from="S_to_C" to="C_to_W" departLane="best" departSpeed="random" />
  <trip id="veh_332" type="car" depart="459.98" from="E_to_C" to="C_to_W" departLane="best" departSpeed="random" />
  <trip id="veh_301" type="car" depart="462.31" from="S_to_C" to="C_to_W" departLane="best" departSpeed="random" />
  <trip id="veh_70" type="car" depart="462.53" from="S_to_C" to="C_to_W" departLane="best" departSpeed="random" />
  <trip id="veh_1107" type="car" depart="462.75" from="S_to_C" to="C_to_N" departLane="best" departSpeed="random" />
  <trip id="veh_1538" type="car" depart="462.82" from="S_to_C" to="C_to_N" departLane="best" departSpeed="random" />
  <trip id="veh_2569" type="car" depart="465.05" from="S_to_C" to="C_to_W" departLane="best" departSpeed="random" />
  <trip id="veh_2715" type="car" depart="466.49" from="E_to_C" to="C_to_W" departLane="best" departSpeed="random" />
  <trip id="veh_2846" type="car" depart="466.96" from="S_to_C" to="C_to_W" departLane="best" departSpeed="random" />
  <trip id="veh_936" type="car" depart="468.38" from="E_to_C" to="C_to_N" departLane="best" departSpeed="random" />
  <trip id="veh_1556" type="car" depart="469.95" from="S_to_C" to="C_to_W" departLane="best" departSpeed="random" />