<?xml version="1.0" encoding="UTF-8"?>
<routes>
  <vType id="car" accel="1.8" decel="4.5" length="5.0" minGap="2.5" sigma="0.3" maxSpeed="13.9" speedDev="0.15" speedFactor="0.95" guiShape="passenger" />
  <!-- EXACTAMENTE 1000 VEHÍCULOS - SEED 42 -->
  <!-- Periodo: 0-3600s (60.0 minutos) -->
  <trip id="veh_0" type="car" depart="1.46" from="E_to_C" to="C_to_W" departLane="best" departSpeed="random" />
  <trip id="veh_1" type="car" depart="2.06" from="S_to_C" to="C_to_N" departLane="best" departSpeed="random" />
  <trip id="veh_2" type="car" depart="6.09" from="S_to_C" to="C_to_W" departLane="best" departSpeed="random" />
  <trip id="veh_3" type="car" depart="9.63" from="E_to_C" to="C_to_N" departLane="best" departSpeed="random" />
  <trip id="veh_4" type="car" depart="12.76" from="S_to_C" to="C_to_N" departLane="best" departSpeed="random" />
  <trip id="veh_5" type="car" depart="19.96" from="E_to_C" to="C_to_N" departLane="best" departSpeed="random" />
  <trip id="veh_6" type="car" depart="21.23" from="E_to_C" to="C_to_W" departLane="best" departSpeed="random" />
  <trip id="veh_7" type="car" depart="23.40" from="E_to_C" to="C_to_N" departLane="best" departSpeed="random" />
  <trip id="veh_8" type="car" depart="28.16" from="E_to_C" to="C_to_N" departLane="best" departSpeed="random" />
  <trip id="veh_9" type="car" depart="33.83" from="E_to_C" to="C_to_N" departLane="best" departSpeed="random" />
  <trip id="veh_10" type="car" depart="34.81" from="E_to_C" to="C_to_W" departLane="best" departSpeed="random" />
  <trip id="veh_11" type="car" depart="36.54" from="E_to_C" to="C_to_N" departLane="best" departSpeed="random" />
  <trip id="veh_12" type="car" depart="41.33" from="S_to_C" to="C_to_N" departLane="best" departSpeed="random" />
  <trip id="veh_13" type="car" depart="50.11" from="E_to_C" to="C_to_W" departLane="best" departSpeed="random" />
  <trip id="veh_14" type="car" depart="50.93" from="E_to_C" to="C_to_N" departLane="best" departSpeed="random" />
  <trip id="veh_15" type="car" depart="69.78" from="E_to_C" to="C_to_N" departLane="best" departSpeed="random" />
  <trip id="veh_16" type="car" depart="70.12" from="E_to_C" to="C_to_W" departLane="best" departSpeed="random" />
  <trip id="veh_17" type="car" depart="73.37" from="E_to_C" to="C_to_W" departLane="best" departSpeed="random" />
  <trip id="veh_18" type="car" depart="85.19" from="E_to_C" to="C_to_N" departLane="best" departSpeed="random" />
  <trip id="veh_19" type="car" depart="87.93" from="S_to_C" to="C_to_N" departLane="best" departSpeed="random" />
  <trip id="veh_20" type="car" depart="89.23" from="E_to_C" to="C_to_W" departLane="best" departSpeed="random" />
  <trip id="veh_21" type="car" depart="90.04" from="E_to_C" to="C_to_N" departLane="best" departSpeed="random" />
  <trip id="veh_22" type="car" depart="90.09" from="S_to_C" to="C_to_W" departLane="best" departSpeed="random" />
  <trip id="veh_23" type="car" depart="92.44" from="S_to_C" to="C_to_N" departLane="best" departSpeed="random" />
  <trip id="veh_24" type="car" depart="95.53" from="S_to_C" to="C_to_N" departLane="best" departSpeed="random" />
  <trip id="veh_25" type="car" depart="97.08" from="E_to_C" to="C_to_W" departLane="best" departSpeed="random" />
  <trip id="veh_26" type="car" depart="97.57" from="S_to_C" to="C_to_N" departLane="best" departSpeed="random" />
  <trip id="veh_27" type="car" depart="103.32" from="E_to_C" to="C_to_W" departLane="best" departSpeed="random" />
  <trip id="veh_28" type="car" depart="104.49" from="S_to_C" to="C_to_W" departLane="best" departSpeed="random" />
  <trip id="veh_29" type="car" depart="107.27" from="E_to_C" to="C_to_W" departLane="best" departSpeed="random" />
  <trip id="veh_30" type="car" depart="115.56" from="S_to_C" to="C_to_N" departLane="best" departSpeed="random" />
  <trip id="veh_31" type="car" depart="117.78" from="E_to_C" to="C_to_W" departLane="best" departSpeed="random" />
  <trip id="veh_32" type="car" depart="129.24" from="E_to_C" to="C_to_N" departLane="best" departSpeed="random" />
  <trip id="veh_33" type="car" depart="133.27" from="E_to_C" to="C_to_W" departLane="best" departSpeed="random" />
  <trip id="veh_34" type="car" depart="143.50" from="S_to_C" to="C_to_W" departLane="best" departSpeed="random" />
  <trip id="veh_35" type="car" depart="144.83" from="S_to_C" to="C_to_W" departLane="best" departSpeed="random" />
  <trip id="veh_36" type="car" depart="157.13" from="S_to_C" to="C_to_N" departLane="best" departSpeed="random" />
  <trip id="veh_37" type="car" depart="164.97" from="E_to_C" to="C_to_N" departLane="best" departSpeed="random" />
  <trip id="veh_38" type="car" depart="165.57" from="S_to_C" to="C_to_W" departLane="best" departSpeed="random" />
  <trip id="veh_39" type="car" depart="169.62" from="E_to_C" to="C_to_W" departLane="best" departSpeed="random" />
  <trip id="veh_40" type="car" depart="176.56" from="S_to_C" to="C_to_W" departLane="best" departSpeed="random" />
  <trip id="veh_41" type="car" depart="180.79" from="S_to_C" to="C_to_W" departLane="best" departSpeed="random" />
  <trip id="veh_42" type="car" depart="181.02" from="E_to_C" to="C_to_W" departLane="best" departSpeed="random" />
  <trip id="veh_43" type="car" depart="182.12" from="S_to_C" to="C_to_W" departLane="best" departSpeed="random" />
  <trip id="veh_44" type="car" depart="184.96" from="S_to_C" to="C_to_W" departLane="best" departSpeed="random" />
  <trip id="veh_45" type="car" depart="192.99" from="E_to_C" to="C_to_W" departLane="best" departSpeed="random" />
  <trip id="veh_46" type="car" depart="205.79" from="E_to_C" to="C_to_N" departLane="best" departSpeed="random" />
  <trip id="veh_47" type="car" depart="208.53" from="E_to_C" to="C_to_N" departLane="best" departSpeed="random" />
  <trip id="veh_48" type="car" depart="211.09" from="S_to_C" to="C_to_N" departLane="best" departSpeed="random" />
  <trip id="veh_49" type="car" depart="227.58" from="S_to_C" to="C_to_N" departLane="best" departSpeed="random" />
  <trip id="veh_50" type="car" depart="228.70" from="E_to_C" to="C_to_W" departLane="best" departSpeed="random" />
  <trip id="veh_51" type="car" depart="231.22" from="E_to_C" to="C_to_W" departLane="best" departSpeed="random" />
  <trip id="veh_52" type="car" depart="246.31" from="S_to_C" to="C_to_W" departLane="best" departSpeed="random" />
  <trip id="veh_53" type="car" depart="249.17" from="E_to_C" to="C_to_W" departLane="best" departSpeed="random" />
  <trip id="veh_54" type="car" depart="251.91" from="S_to_C" to="C_to_W" departLane="best" departSpeed="random" />
  <trip id="veh_55" type="car" depart="255.09" from="E_to_C" to="C_to_N" departLane="best" departSpeed="random" />
  <trip id="veh_56" type="car" depart="255.58" from="E_to_C" to="C_to_W" departLane="best" departSpeed="random" />
  <trip id="veh_57" type="car" depart="257.08" from="E_to_C" to="C_to_N" departLane="best" departSpeed="random" />
  <trip id="veh_58" type="car" depart="261.16" from="S_to_C" to="C_to_W" departLane="best" departSpeed="random" />
  <trip id="veh_59" type="car" depart="262.18" from="E_to_C" to="C_to_W" departLane="best" departSpeed="random" />
  <trip id="veh_60" type="car" depart="263.74" from="E_to_C" to="C_to_W" departLane="best" departSpeed="random" />
  <trip id="veh_61" type="car" depart="266.70" from="E_to_C" to="C_to_W" departLane="best" departSpeed="random" />
  <trip id="veh_62" type="car" depart="270.23" from="E_to_C" to="C_to_N" departLane="best" departSpeed="random" />
  <trip id="veh_63" type="car" depart="270.88" from="S_to_C" to="C_to_W" departLane="best" departSpeed="random" />
  <trip id="veh_64" type="car" depart="273.59" from="S_to_C" to="C_to_W" departLane="best" departSpeed="random" />
  <trip id="veh_65" type="car" depart="278.94" from="E_to_C" to="C_to_N" departLane="best" departSpeed="random" />
  <trip id="veh_66" type="car" depart="284.29" from="E_to_C" to="C_to_W" departLane="best" departSpeed="random" />
  <trip id="veh_67" type="car" depart="287.25" from="E_to_C" to="C_to_N" departLane="best" departSpeed="random" />
  <trip id="veh_68" type="car" depart="288.40" from="E_to_C" to="C_to_N" departLane="best" departSpeed="random" />
  <trip id="veh_69" type="car" depart="289.59" from="E_to_C" to="C_to_W" departLane="best" departSpeed="random" />
  <trip id="veh_70" type="car" depart="294.86" from="S_to_C" to="C_to_W" departLane="best" departSpeed="random" />
  <trip id="veh_71" type="car" depart="305.26" from="S_to_C" to="C_to_N" departLane="best" departSpeed="random" />
  <trip id="veh_72" type="car" depart="308.21" from="S_to_C" to="C_to_W" departLane="best" departSpeed="random" />
  <trip id="veh_73" type="car" depart="308.35" from="S_to_C" to="C_to_N" departLane="best" departSpeed="random" />
  <trip id="veh_74" type="car" depart="311.99" from="E_to_C" to="C_to_N" departLane="best" departSpeed="random" />
  <trip id="veh_75" type="car" depart="312.98" from="E_to_C" to="C_to_N" departLane="best" departSpeed="random" />
  <trip id="veh_76" type="car" depart="324.48" from="E_to_C" to="C_to_W" departLane="best" departSpeed="random" />
  <trip id="veh_77" type="car" depart="327.27" from="S_to_C" to="C_to_W" departLane="best" departSpeed="random" />
  <trip id="veh_78" type="car" depart="328.47" from="S_to_C" to="C_to_W" departLane="best" departSpeed="random" />
  <trip id="veh_79" type="car" depart="328.78" from="S_to_C" to="C_to_W" departLane="best" departSpeed="random" />
  <trip id="veh_80" type="car" depart="332.27" from="E_to_C" to="C_to_N" departLane="best" departSpeed="random" />
  <trip id="veh_81" type="car" depart="333.89" from="S_to_C" to="C_to_W" departLane="best" departSpeed="random" />
  <trip id="veh_82" type="car" depart="334.99" from="E_to_C" to="C_to_W" departLane="best" departSpeed="random" />
  <trip id="veh_83" type="car" depart="335.55" from="S_to_C" to="C_to_W" departLane="best" departSpeed="random" />
  <trip id="veh_84" type="car" depart="348.18" from="E_to_C" to="C_to_N" departLane="best" departSpeed="random" />
  <trip id="veh_85" type="car" depart="348.95" from="S_to_C" to="C_to_N" departLane="best" departSpeed="random" />
  <trip id="veh_86" type="car" depart="349.89" from="E_to_C" to="C_to_N" departLane="best" departSpeed="random" />
  <trip id="veh_87" type="car" depart="354.30" from="S_to_C" to="C_to_N" departLane="best" departSpeed="random" />
  <trip id="veh_88" type="car" depart="354.40" from="E_to_C" to="C_to_W" departLane="best" departSpeed="random" />
  <trip id="veh_89" type="car" depart="356.48" from="S_to_C" to="C_to_W" departLane="best" departSpeed="random" />
  <trip id="veh_90" type="car" depart="361.89" from="E_to_C" to="C_to_N" departLane="best" departSpeed="random" />
  <trip id="veh_91" type="car" depart="363.61" from="S_to_C" to="C_to_W" departLane="best" departSpeed="random" />
  <trip id="veh_92" type="car" depart="366.84" from="E_to_C" to="C_to_N" departLane="best" departSpeed="random" />
  <trip id="veh_93" type="car" depart="370.06" from="S_to_C" to="C_to_N" departLane="best" departSpeed="random" />
  <trip id="veh_94" type="car" depart="379.94" from="S_to_C" to="C_to_N" departLane="best" departSpeed="random" />
  <trip id="veh_95" type="car" depart="383.71" from="S_to_C" to="C_to_N" departLane="best" departSpeed="random" />
  <trip id="veh_96" type="car" depart="385.33" from="S_to_C" to="C_to_N" departLane="best" departSpeed="random" />
  <trip id="veh_97" type="car" depart="389.14" from="S_to_C" to="C_to_N" departLane="best" departSpeed="random" />
  <trip id="veh_98" type="car" depart="389.16" from="S_to_C" to="C_to_W" departLane="best" departSpeed="random" />
  <trip id="veh_99" type="car" depart="390.05" from="S_to_C" to="C_to_W" departLane="best" departSpeed="random" />
  <trip id="veh_100" type="car" depart="390.25" from="S_to_C" to="C_to_N" departLane="best" departSpeed="random" />
  <trip id="veh_101" type="car" depart="394.74" from="S_to_C" to="C_to_N" departLane="best" departSpeed="random" />
  <trip id="veh_102" type="car" depart="401.59" from="S_to_C" to="C_to_N" departLane="best" departSpeed="random" />
  <trip id="veh_103" type="car" depart="412.32" from="S_to_C" to="C_to_W" departLane="best" departSpeed="random" />
  <trip id="veh_104" type="car" depart="414.61" from="E_to_C" to="C_to_W" departLane="best" departSpeed="random" />
  <trip id="veh_105" type="car" depart="415.23" from="E_to_C" to="C_to_N" departLane="best" departSpeed="random" />
  <trip id="veh_106" type="car" depart="415.54" from="S_to_C" to="C_to_W" departLane="best" departSpeed="random" />
  <trip id="veh_107" type="car" depart="422.88" from="E_to_C" to="C_to_W" departLane="best" departSpeed="random" />
  <trip id="veh_108" type="car" depart="426.43" from="S_to_C" to="C_to_W" departLane="best" departSpeed="random" />
  <trip id="veh_109" type="car" depart="430.40" from="E_to_C" to="C_to_W" departLane="best" departSpeed="random" />
  <trip id="veh_110" type="car" depart="431.59" from="E_to_C" to="C_to_N" departLane="best" departSpeed="random" />
  <trip id="veh_111" type="car" depart="434.36" from="E_to_C" to="C_to_N" departLane="best" departSpeed="random" />
  <trip id="veh_112" type="car" depart="435.62" from="S_to_C" to="C_to_W" departLane="best" departSpeed="random" />
  <trip id="veh_113" type="car" depart="435.80" from="E_to_C" to="C_to_N" departLane="best" departSpeed="random" />
  <trip id="veh_114" type="car" depart="437.13" from="E_to_C" to="C_to_N" departLane="best" departSpeed="random" />
  <trip id="veh_115" type="car" depart="447.67" from="S_to_C" to="C_to_N" departLane="best" departSpeed="random" />
  <trip id="veh_116" type="car" depart="454.40" from="E_to_C" to="C_to_N" departLane="best" departSpeed="random" />
  <trip id="veh_117" type="car" depart="454.61" from="E_to_C" to="C_to_N" departLane="best" departSpeed="random" />
  <trip id="veh_118" type="car" depart="458.24" from="S_to_C" to="C_to_W" departLane="best" departSpeed="random" />
  <trip id="veh_119" type="car" depart="458.80" from="S_to_C" to="C_to_W" departLane="best" departSpeed="random" />
  <trip id="veh_120" type="car" depart="459.46" from="S_to_C" to="C_to_N" departLane="best" departSpeed="random" />
  <trip id="veh_121" type="car" depart="462.21" from="S_to_C" to="C_to_N" departLane="best" departSpeed="random" />
  <trip id="veh_122" type="car" depart="475.78" from="S_to_C" to="C_to_W" departLane="best" departSpeed="random" />
  <trip id="veh_123" type="car" depart="476.32" from="S_to_C" to="C_to_W" departLane="best" departSpeed="random" />
  <trip id="veh_124" type="car" depart="483.45" from="E_to_C" to="C_to_W" departLane="best" departSpeed="random" />
  <trip id="veh_125" type="car" depart="488.39" from="E_to_C" to="C_to_W" departLane="best" departSpeed="random" />
  <trip id="veh_126" type="car" depart="488.52" from="S_to_C" to="C_to_W" departLane="best" departSpeed="random" />
  <trip id="veh_127" type="car" depart="498.15" from="E_to_C" to="C_to_N" departLane="best" departSpeed="random" />
  <trip id="veh_128" type="car" depart="503.20" from="S_to_C" to="C_to_W" departLane="best" departSpeed="random" />
  <trip id="veh_129" type="car" depart="506.73" from="E_to_C" to="C_to_N" departLane="best" departSpeed="random" />
  <trip id="veh_130" type="car" depart="515.22" from="S_to_C" to="C_to_W" departLane="best" departSpeed="random" />
  <trip id="veh_131" type="car" depart="524.05" from="E_to_C" to="C_to_W" departLane="best" departSpeed="random" />
  <trip id="veh_132" type="car" depart="533.14" from="E_to_C" to="C_to_W" departLane="best" departSpeed="random" />
  <trip id="veh_133" type="car" depart="534.94" from="S_to_C" to="C_to_N" departLane="best" departSpeed="random" />
  <trip id="veh_134" type="car" depart="537.11" from="E_to_C" to="C_to_W" departLane="best" departSpeed="random" />
  <trip id="veh_135" type="car" depart="548.58" from="E_to_C" to="C_to_W" departLane="best" departSpeed="random" />
  <trip id="veh_136" type="car" depart="550.22" from="E_to_C" to="C_to_N" departLane="best" departSpeed="random" />
  <trip id="veh_137" type="car" depart="555.70" from="E_to_C" to="C_to_N" departLane="best" departSpeed="random" />
  <trip id="veh_138" type="car" depart="556.28" from="S_to_C" to="C_to_W" departLane="best" departSpeed="random" />
  <trip id="veh_139" type="car" depart="556.39" from="E_to_C" to="C_to_W" departLane="best" departSpeed="random" />
  <trip id="veh_140" type="car" depart="557.27" from="S_to_C" to="C_to_W" departLane="best" departSpeed="random" />
  <trip id="veh_141" type="car" depart="559.73" from="S_to_C" to="C_to_W" departLane="best" departSpeed="random" />
  <trip id="veh_142" type="car" depart="565.41" from="S_to_C" to="C_to_N" departLane="best" departSpeed="random" />
  <trip id="veh_143" type="car" depart="566.76" from="S_to_C" to="C_to_N" departLane="best" departSpeed="random" />
  <trip id="veh_144" type="car" depart="567.89" from="S_to_C" to="C_to_N" departLane="best" departSpeed="random" />
  <trip id="veh_145" type="car" depart="568.71" from="S_to_C" to="C_to_W" departLane="best" departSpeed="random" />
  <trip id="veh_146" type="car" depart="570.16" from="S_to_C" to="C_to_N" departLane="best" departSpeed="random" />
  <trip id="veh_147" type="car" depart="588.25" from="S_to_C" to="C_to_N" departLane="best" departSpeed="random" />
  <trip id="veh_148" type="car" depart="594.16" from="E_to_C" to="C_to_W" departLane="best" departSpeed="random" />
  <trip id="veh_149" type="car" depart="597.32" from="S_to_C" to="C_to_W" departLane="best" departSpeed="random" />
  <trip id="veh_150" type="car" depart="598.72" from="E_to_C" to="C_to_N" departLane="best" departSpeed="random" />
  <trip id="veh_151" type="car" depart="604.04" from="S_to_C" to="C_to_W" departLane="best" departSpeed="random" />
  <trip id="veh_152" type="car" depart="610.89" from="S_to_C" to="C_to_N" departLane="best" departSpeed="random" />
  <trip id="veh_153" type="car" depart="611.94" from="E_to_C" to="C_to_W" departLane="best" departSpeed="random" />
  <trip id="veh_154" type="car" depart="616.10" from="S_to_C" to="C_to_N" departLane="best" departSpeed="random" />
  <trip id="veh_155" type="car" depart="625.73" from="S_to_C" to="C_to_W" departLane="best" departSpeed="random" />
  <trip id="veh_156" type="car" depart="632.30" from="E_to_C" to="C_to_N" departLane="best" departSpeed="random" />
  <trip id="veh_157" type="car" depart="633.19" from="S_to_C" to="C_to_W" departLane="best" departSpeed="random" />
  <trip id="veh_158" type="car" depart="642.84" from="E_to_C" to="C_to_N" departLane="best" departSpeed="random" />
  <trip id="veh_159" type="car" depart="643.15" from="E_to_C" to="C_to_N" departLane="best" departSpeed="random" />
  <trip id="veh_160" type="car" depart="645.99" from="E_to_C" to="C_to_W" departLane="best" departSpeed="random" />
  <trip id="veh_161" type="car" depart="653.36" from="E_to_C" to="C_to_N" departLane="best" departSpeed="random" />
  <trip id="veh_162" type="car" depart="654.62" from="S_to_C" to="C_to_N" departLane="best" departSpeed="random" />
  <trip id="veh_163" type="car" depart="663.71" from="S_to_C" to="C_to_N" departLane="best" departSpeed="random" />
  <trip id="veh_164" type="car" depart="666.54" from="E_to_C" to="C_to_N" departLane="best" departSpeed="random" />
  <trip id="veh_165" type="car" depart="668.97" from="E_to_C" to="C_to_W" departLane="best" departSpeed="random" />
  <trip id="veh_166" type="car" depart="675.30" from="E_to_C" to="C_to_W" departLane="best" departSpeed="random" />
  <trip id="veh_167" type="car" depart="679.15" from="S_to_C" to="C_to_N" departLane="best" departSpeed="random" />
  <trip id="veh_168" type="car" depart="684.75" from="S_to_C" to="C_to_W" departLane="best" departSpeed="random" />
  <trip id="veh_169" type="car" depart="685.48" from="S_to_C" to="C_to_N" departLane="best" departSpeed="random" />
  <trip id="veh_170" type="car" depart="693.30" from="E_to_C" to="C_to_W" departLane="best" departSpeed="random" />
  <trip id="veh_171" type="car" depart="695.27" from="S_to_C" to="C_to_N" departLane="best" departSpeed="random" />
  <trip id="veh_172" type="car" depart="698.82" from="S_to_C" to="C_to_W" departLane="best" departSpeed="random" />
  <trip id="veh_173" type="car" depart="699.97" from="S_to_C" to="C_to_W" departLane="best" departSpeed="random" />
  <trip id="veh_174" type="car" depart="715.82" from="S_to_C" to="C_to_W" departLane="best" departSpeed="random" />
  <trip id="veh_175" type="car" depart="716.87" from="E_to_C" to="C_to_N" departLane="best" departSpeed="random" />
  <trip id="veh_176" type="car" depart="717.18" from="E_to_C" to="C_to_W" departLane="best" departSpeed="random" />
  <trip id="veh_177" type="car" depart="717.70" from="E_to_C" to="C_to_W" departLane="best" departSpeed="random" />
  <trip id="veh_178" type="car" depart="724.14" from="S_to_C" to="C_to_N" departLane="best" departSpeed="random" />
  <trip id="veh_179" type="car" depart="732.81" from="E_to_C" to="C_to_W" departLane="best" departSpeed="random" />
  <trip id="veh_180" type="car" depart="732.95" from="E_to_C" to="C_to_N" departLane="best" departSpeed="random" />
  <trip id="veh_181" type="car" depart="735.33" from="S_to_C" to="C_to_W" departLane="best" departSpeed="random" />
  <trip id="veh_182" type="car" depart="744.60" from="E_to_C" to="C_to_W" departLane="best" departSpeed="random" />
  <trip id="veh_183" type="car" depart="748.04" from="E_to_C" to="C_to_N" departLane="best" departSpeed="random" />
  <trip id="veh_184" type="car" depart="754.23" from="S_to_C" to="C_to_W" departLane="best" departSpeed="random" />
  <trip id="veh_185" type="car" depart="756.28" from="E_to_C" to="C_to_W" departLane="best" departSpeed="random" />
  <trip id="veh_186" type="car" depart="759.54" from="E_to_C" to="C_to_W" departLane="best" departSpeed="random" />
  <trip id="veh_187" type="car" depart="759.69" from="S_to_C" to="C_to_N" departLane="best" departSpeed="random" />
  <trip id="veh_188" type="car" depart="761.98" from="S_to_C" to="C_to_N" departLane="best" departSpeed="random" />
  <trip id="veh_189" type="car" depart="762.47" from="S_to_C" to="C_to_N" departLane="best" departSpeed="random" />
  <trip id="veh_190" type="car" depart="763.63" from="E_to_C" to="C_to_W" departLane="best" departSpeed="random" />
  <trip id="veh_191" type="car" depart="767.36" from="E_to_C" to="C_to_W" departLane="best" departSpeed="random" />
  <trip id="veh_192" type="car" depart="769.33" from="E_to_C" to="C_to_N" departLane="best" departSpeed="random" />
  <trip id="veh_193" type="car" depart="769.49" from="E_to_C" to="C_to_W" departLane="best" departSpeed="random" />
  <trip id="veh_194" type="car" depart="771.25" from="S_to_C" to="C_to_N" departLane="best" departSpeed="random" />
  <trip id="veh_195" type="car" depart="778.98" from="S_to_C" to="C_to_W" departLane="best" departSpeed="random" />
  <trip id="veh_196" type="car" depart="784.67" from="E_to_C" to="C_to_N" departLane="best" departSpeed="random" />
  <trip id="veh_197" type="car" depart="787.10" from="E_to_C" to="C_to_W" departLane="best" departSpeed="random" />
  <trip id="veh_198" type="car" depart="789.55" from="E_to_C" to="C_to_N" departLane="best" departSpeed="random" />
  <trip id="veh_199" type="car" depart="789.92" from="S_to_C" to="C_to_N" departLane="best" departSpeed="random" />
  <trip id="veh_200" type="car" depart="792.78" from="S_to_C" to="C_to_N" departLane="best" departSpeed="random" />
  <trip id="veh_201" type="car" depart="793.59" from="S_to_C" to="C_to_N" departLane="best" departSpeed="random" />
  <trip id="veh_202" type="car" depart="793.94" from="E_to_C" to="C_to_N" departLane="best" departSpeed="random" />
  <trip id="veh_203" type="car" depart="796.92" from="S_to_C" to="C_to_W" departLane="best" departSpeed="random" />
  <trip id="veh_204" type="car" depart="797.75" from="E_to_C" to="C_to_N" departLane="best" departSpeed="random" />
  <trip id="veh_205" type="car" depart="800.76" from="S_to_C" to="C_to_N" departLane="best" departSpeed="random" />
  <trip id="veh_206" type="car" depart="803.56" from="E_to_C" to="C_to_N" departLane="best" departSpeed="random" />
  <trip id="veh_207" type="car" depart="808.71" from="S_to_C" to="C_to_W" departLane="best" departSpeed="random" />
  <trip id="veh_208" type="car" depart="808.91" from="E_to_C" to="C_to_W" departLane="best" departSpeed="random" />
  <trip id="veh_209" type="car" depart="812.47" from="E_to_C" to="C_to_W" departLane="best" departSpeed="random" />
  <trip id="veh_210" type="car" depart="818.94" from="E_to_C" to="C_to_N" departLane="best" departSpeed="random" />
  <trip id="veh_211" type="car" depart="819.34" from="S_to_C" to="C_to_N" departLane="best" departSpeed="random" />
  <trip id="veh_212" type="car" depart="820.43" from="E_to_C" to="C_to_W" departLane="best" departSpeed="random" />
  <trip id="veh_213" type="car" depart="824.19" from="S_to_C" to="C_to_N" departLane="best" departSpeed="random" />
  <trip id="veh_214" type="car" depart="824.57" from="S_to_C" to="C_to_W" departLane="best" departSpeed="random" />
  <trip id="veh_215" type="car" depart="828.41" from="S_to_C" to="C_to_N" departLane="best" departSpeed="random" />
  <trip id="veh_216" type="car" depart="832.54" from="S_to_C" to="C_to_N" departLane="best" departSpeed="random" />
  <trip id="veh_217" type="car" depart="833.31" from="S_to_C" to="C_to_N" departLane="best" departSpeed="random" />
  <trip id="veh_218" type="car" depart="838.05" from="E_to_C" to="C_to_W" departLane="best" departSpeed="random" />
  <trip id="veh_219" type="car" depart="840.82" from="E_to_C" to="C_to_N" departLane="best" departSpeed="random" />
  <trip id="veh_220" type="car" depart="841.76" from="S_to_C" to="C_to_W" departLane="best" departSpeed="random" />
  <trip id="veh_221" type="car" depart="846.73" from="E_to_C" to="C_to_W" departLane="best" departSpeed="random" />
  <trip id="veh_222" type="car" depart="853.94" from="S_to_C" to="C_to_N" departLane="best" departSpeed="random" />
  <trip id="veh_223" type="car" depart="856.82" from="E_to_C" to="C_to_N" departLane="best" departSpeed="random" />
  <trip id="veh_224" type="car" depart="859.27" from="S_to_C" to="C_to_N" departLane="best" departSpeed="random" />
  <trip id="veh_225" type="car" depart="861.47" from="S_to_C" to="C_to_N" departLane="best" departSpeed="random" />
  <trip id="veh_226" type="car" depart="866.99" from="E_to_C" to="C_to_N" departLane="best" departSpeed="random" />
  <trip id="veh_227" type="car" depart="877.43" from="E_to_C" to="C_to_W" departLane="best" departSpeed="random" />
  <trip id="veh_228" type="car" depart="877.91" from="S_to_C" to="C_to_W" departLane="best" departSpeed="random" />
  <trip id="veh_229" type="car" depart="878.34" from="S_to_C" to="C_to_W" departLane="best" departSpeed="random" />
  <trip id="veh_230" type="car" depart="881.43" from="E_to_C" to="C_to_N" departLane="best" departSpeed="random" />
  <trip id="veh_231" type="car" depart="886.38" from="S_to_C" to="C_to_W" departLane="best" departSpeed="random" />
  <trip id="veh_232" type="car" depart="887.86" from="E_to_C" to="C_to_W" departLane="best" departSpeed="random" />
  <trip id="veh_233" type="car" depart="890.06" from="S_to_C" to="C_to_N" departLane="best" departSpeed="random" />
  <trip id="veh_234" type="car" depart="895.16" from="S_to_C" to="C_to_W" departLane="best" departSpeed="random" />
  <trip id="veh_235" type="car" depart="897.11" from="S_to_C" to="C_to_W" departLane="best" departSpeed="random" />
  <trip id="veh_236" type="car" depart="898.31" from="S_to_C" to="C_to_W" departLane="best" departSpeed="random" />
  <trip id="veh_237" type="car" depart="899.30" from="E_to_C" to="C_to_W" departLane="best" departSpeed="random" />
  <trip id="veh_238" type="car" depart="900.35" from="S_to_C" to="C_to_W" departLane="best" departSpeed="random" />
  <trip id="veh_239" type="car" depart="901.32" from="S_to_C" to="C_to_N" departLane="best" departSpeed="random" />
  <trip id="veh_240" type="car" depart="905.05" from="S_to_C" to="C_to_N" departLane="best" departSpeed="random" />
  <trip id="veh_241" type="car" depart="908.18" from="S_to_C" to="C_to_N" departLane="best" departSpeed="random" />
  <trip id="veh_242" type="car" depart="914.32" from="S_to_C" to="C_to_W" departLane="best" departSpeed="random" />
  <trip id="veh_243" type="car" depart="917.00" from="E_to_C" to="C_to_N" departLane="best" departSpeed="random" />
  <trip id="veh_244" type="car" depart="919.18" from="S_to_C" to="C_to_W" departLane="best" departSpeed="random" />
  <trip id="veh_245" type="car" depart="925.09" from="S_to_C" to="C_to_W" departLane="best" departSpeed="random" />
  <trip id="veh_246" type="car" depart="933.09" from="S_to_C" to="C_to_N" departLane="best" departSpeed="random" />
  <trip id="veh_247" type="car" depart="943.04" from="S_to_C" to="C_to_W" departLane="best" departSpeed="random" />
  <trip id="veh_248" type="car" depart="945.87" from="S_to_C" to="C_to_N" departLane="best" departSpeed="random" />
  <trip id="veh_249" type="car" depart="948.20" from="S_to_C" to="C_to_W" departLane="best" departSpeed="random" />
  <trip id="veh_250" type="car" depart="950.34" from="S_to_C" to="C_to_N" departLane="best" departSpeed="random" />
  <trip id="veh_251" type="car" depart="953.57" from="E_to_C" to="C_to_W" departLane="best" departSpeed="random" />
  <trip id="veh_252" type="car" depart="954.20" from="S_to_C" to="C_to_N" departLane="best" departSpeed="random" />
  <trip id="veh_253" type="car" depart="954.72" from="E_to_C" to="C_to_N" departLane="best" departSpeed="random" />
  <trip id="veh_254" type="car" depart="954.73" from="S_to_C" to="C_to_N" departLane="best" departSpeed="random" />
  <trip id="veh_255" type="car" depart="955.68" from="E_to_C" to="C_to_N" departLane="best" departSpeed="random" />
  <trip id="veh_256" type="car" depart="960.50" from="E_to_C" to="C_to_W" departLane="best" departSpeed="random" />