<?xml version="1.0" encoding="UTF-8"?>

<!-- generated on 2025-08-11 14:43:17 by Eclipse SUMO netedit Version 1.22.0
<neteditConfiguration xmlns:xsi="http://www.w3.org/2001/XMLSchema-instance" xsi:noNamespaceSchemaLocation="http://sumo.dlr.de/xsd/neteditConfiguration.xsd">

    <input>
        <sumo-net-file value="C:\Users\bryan\Maestria\Tesis\Desarollo\Cursor gpt5\data\sumo\network\four_way_cross.net.xml"/>
    </input>

    <output>
        <output-file value="C:\Users\bryan\Maestria\Tesis\Desarollo\Cursor gpt5\data\sumo\network\four_way_cross.net.xml"/>
    </output>

    <processing>
        <geometry.min-radius.fix.railways value="false"/>
        <geometry.max-grade.fix value="false"/>
        <offset.disable-normalization value="true"/>
        <lefthand value="0"/>
    </processing>

    <junctions>
        <no-turnarounds value="true"/>
        <junctions.corner-detail value="5"/>
        <junctions.limit-turn-speed value="5.50"/>
        <rectangular-lane-cut value="0"/>
    </junctions>

    <pedestrian>
        <walkingareas value="0"/>
    </pedestrian>

</neteditConfiguration>
-->

<net version="1.20" junctionCornerDetail="5" limitTurnSpeed="5.50" xmlns:xsi="http://www.w3.org/2001/XMLSchema-instance" xsi:noNamespaceSchemaLocation="http://sumo.dlr.de/xsd/net_file.xsd">

    <location netOffset="300.00,300.00" convBoundary="182.13,180.60,426.16,395.47" origBoundary="-300.00,-300.00,300.00,300.00" projParameter="!"/>

    <edge id=":C_0" function="internal">
        <lane id=":C_0_0" index="0" speed="6.51" length="9.03" shape="310.40,304.80 307.95,305.15 306.20,306.20 305.15,307.95 304.80,310.40"/>
    </edge>
    <edge id=":C_1" function="internal">
        <lane id=":C_1_0" index="0" speed="13.90" length="14.40" shape="310.40,304.80 296.00,304.80"/>
        <lane id=":C_1_1" index="1" speed="13.90" length="14.40" shape="310.40,301.60 296.00,301.60"/>
    </edge>
    <edge id=":C_3" function="internal">
        <lane id=":C_3_0" index="0" speed="13.90" length="14.40" shape="304.80,296.00 304.80,310.40"/>
        <lane id=":C_3_1" index="1" speed="13.90" length="14.40" shape="301.60,296.00 301.60,310.40"/>
    </edge>
    <edge id=":C_5" function="internal">
        <lane id=":C_5_0" index="0" speed="6.51" length="9.03" shape="301.60,296.00 301.25,298.45 300.20,300.20 298.45,301.25 296.00,301.60"/>
    </edge>

    <edge id="C_to_N" from="C" to="N" priority="-1">
        <lane id="C_to_N_0" index="0" speed="13.90" length="85.07" shape="304.80,310.40 304.80,395.47"/>
        <lane id="C_to_N_1" index="1" speed="13.90" length="85.07" shape="301.60,310.40 301.60,395.47"/>
    </edge>
    <edge id="C_to_W" from="C" to="W" priority="-1">
        <lane id="C_to_W_0" index="0" speed="13.90" length="113.87" shape="296.00,304.80 182.13,304.76"/>
        <lane id="C_to_W_1" index="1" speed="13.90" length="113.87" shape="296.00,301.60 182.13,301.56"/>
    </edge>
    <edge id="E_to_C" from="E" to="C" priority="-1">
        <lane id="E_to_C_0" index="0" speed="13.90" length="115.76" shape="426.16,304.80 310.40,304.80"/>
        <lane id="E_to_C_1" index="1" speed="13.90" length="115.76" shape="426.16,301.60 310.40,301.60"/>
    </edge>
    <edge id="S_to_C" from="S" to="C" priority="-1">
        <lane id="S_to_C_0" index="0" speed="13.90" length="115.40" shape="304.80,180.60 304.80,296.00"/>
        <lane id="S_to_C_1" index="1" speed="13.90" length="115.40" shape="301.60,180.60 301.60,296.00"/>
    </edge>

    <tlLogic id="C" type="static" programID="0" offset="0">
        <phase duration="42" state="GGGrrr"/>
        <phase duration="3"  state="yyyrrr"/>
        <phase duration="42" state="rrrGGG"/>
        <phase duration="3"  state="rrryyy"/>
    </tlLogic>

    <junction id="C" type="traffic_light" x="300.00" y="300.00" incLanes="E_to_C_0 E_to_C_1 S_to_C_0 S_to_C_1" intLanes=":C_0_0 :C_1_0 :C_1_1 :C_3_0 :C_3_1 :C_5_0" shape="300.00,310.40 306.40,310.40 306.84,308.18 307.40,307.40 308.18,306.84 309.18,306.51 310.40,306.40 310.40,300.00 308.18,299.56 307.40,299.00 306.84,298.22 306.51,297.22 306.40,296.00 300.00,296.00 299.56,298.22 299.00,299.00 298.22,299.55 297.22,299.89 296.00,300.00 296.00,306.40 298.22,306.84 299.00,307.40 299.56,308.18 299.89,309.18">
        <request index="0" response="000000" foes="011000" cont="0"/>
        <request index="1" response="000000" foes="111000" cont="0"/>
        <request index="2" response="000000" foes="111000" cont="0"/>
        <request index="3" response="000111" foes="000111" cont="0"/>
        <request index="4" response="000111" foes="000111" cont="0"/>
        <request index="5" response="000110" foes="000110" cont="0"/>
    </junction>
    <junction id="E" type="dead_end" x="426.16" y="300.00" incLanes="" intLanes="" shape="426.16,300.00 426.16,306.40"/>
    <junction id="N" type="dead_end" x="300.00" y="395.47" incLanes="C_to_N_0 C_to_N_1" intLanes="" shape="306.40,395.47 300.00,395.47"/>
    <junction id="S" type="dead_end" x="300.00" y="180.60" incLanes="" intLanes="" shape="300.00,180.60 306.40,180.60"/>
    <junction id="W" type="dead_end" x="182.13" y="299.96" incLanes="C_to_W_0 C_to_W_1" intLanes="" shape="182.13,306.36 182.13,299.96"/>

    <connection from="E_to_C" to="C_to_N" fromLane="0" toLane="0" via=":C_0_0" tl="C" linkIndex="0" dir="r" state="O"/>
    <connection from="E_to_C" to="C_to_W" fromLane="0" toLane="0" via=":C_1_0" tl="C" linkIndex="1" dir="s" state="O"/>
    <connection from="E_to_C" to="C_to_W" fromLane="1" toLane="1" via=":C_1_1" tl="C" linkIndex="2" dir="s" state="O"/>
    <connection from="S_to_C" to="C_to_N" fromLane="0" toLane="0" via=":C_3_0" tl="C" linkIndex="3" dir="s" state="o"/>
    <connection from="S_to_C" to="C_to_N" fromLane="1" toLane="1" via=":C_3_1" tl="C" linkIndex="4" dir="s" state="o"/>
    <connection from="S_to_C" to="C_to_W" fromLane="1" toLane="1" via=":C_5_0" tl="C" linkIndex="5" dir="l" state="o"/>

    <connection from=":C_0" to="C_to_N" fromLane="0" toLane="0" dir="r" state="M"/>
    <connection from=":C_1" to="C_to_W" fromLane="0" toLane="0" dir="s" state="M"/>
    <connection from=":C_1" to="C_to_W" fromLane="1" toLane="1" dir="s" state="M"/>
    <connection from=":C_3" to="C_to_N" fromLane="0" toLane="0" dir="s" state="M"/>
    <connection from=":C_3" to="C_to_N" fromLane="1" toLane="1" dir="s" state="M"/>
    <connection from=":C_5" to="C_to_W" fromLane="0" toLane="1" dir="l" state="M"/>

</net>
