<?xml version="1.0" encoding="UTF-8"?>

<!-- generated on 2025-12-23 02:40:40 by Eclipse SUMO netconvert Version 1.22.0
<netconvertConfiguration xmlns:xsi="http://www.w3.org/2001/XMLSchema-instance" xsi:noNamespaceSchemaLocation="http://sumo.dlr.de/xsd/netconvertConfiguration.xsd">

    <input>
        <osm-files value="data/sumo/network/ibarra_mayorista.osm"/>
    </input>

    <output>
        <output-file value="data/sumo/network/ibarra_mayorista.net.xml"/>
    </output>

    <projection>
        <proj.utm value="true"/>
    </projection>

    <processing>
        <geometry.remove value="true"/>
    </processing>

    <tls_building>
        <tls.guess value="true"/>
        <tls.guess.threshold value="1"/>
        <tls.join value="true"/>
    </tls_building>

    <ramp_guessing>
        <ramps.guess value="true"/>
    </ramp_guessing>

    <junctions>
        <junctions.join value="true"/>
    </junctions>

</netconvertConfiguration>
-->

<net version="1.20" junctionCornerDetail="5" limitTurnSpeed="5.50" xmlns:xsi="http://www.w3.org/2001/XMLSchema-instance" xsi:noNamespaceSchemaLocation="http://sumo.dlr.de/xsd/net_file.xsd">

    <location netOffset="-819731.68,-39282.52" convBoundary="0.00,0.00,1333.22,1324.01" origBoundary="-78.127809,0.354951,-78.115842,0.366913" projParameter="+proj=utm +zone=17 +ellps=WGS84 +datum=WGS84 +units=m +no_defs"/>

    <type id="highway.footway" priority="1" numLanes="1" speed="2.78" allow="pedestrian" oneway="1" width="2.00"/>
    <type id="highway.pedestrian" priority="1" numLanes="1" speed="2.78" allow="pedestrian" oneway="1" width="2.00"/>
    <type id="highway.primary" priority="12" numLanes="2" speed="27.78" disallow="tram rail_urban rail rail_electric rail_fast ship container cable_car subway aircraft wheelchair scooter drone" oneway="0"/>
    <type id="highway.primary_link" priority="7" numLanes="1" speed="22.22" disallow="tram rail_urban rail rail_electric rail_fast ship container cable_car subway aircraft wheelchair scooter drone" oneway="0"/>
    <type id="highway.residential" priority="3" numLanes="1" speed="13.89" disallow="tram rail_urban rail rail_electric rail_fast ship container cable_car subway aircraft wheelchair scooter drone" oneway="0"/>
    <type id="highway.service" priority="1" numLanes="1" speed="5.56" allow="pedestrian delivery bicycle" oneway="0"/>
    <type id="highway.steps" priority="1" numLanes="1" speed="1.39" allow="pedestrian" oneway="1" width="2.00"/>
    <type id="highway.tertiary" priority="10" numLanes="1" speed="22.22" disallow="tram rail_urban rail rail_electric rail_fast ship container cable_car subway aircraft wheelchair scooter drone" oneway="0"/>
    <type id="highway.trunk" priority="13" numLanes="2" speed="27.78" disallow="pedestrian bicycle tram rail_urban rail rail_electric rail_fast ship container cable_car subway aircraft wheelchair scooter drone" oneway="0"/>
    <type id="highway.unclassified" priority="4" numLanes="1" speed="13.89" disallow="tram rail_urban rail rail_electric rail_fast ship container cable_car subway aircraft wheelchair scooter drone" oneway="0"/>

    <edge id=":10108685101_0" function="internal">
        <lane id=":10108685101_0_0" index="0" disallow="tram rail_urban rail rail_electric rail_fast ship container cable_car subway aircraft wheelchair scooter drone" speed="3.65" length="4.67" shape="1257.80,550.86 1259.24,550.93 1260.00,551.41 1260.06,552.30 1259.45,553.60"/>
    </edge>
    <edge id=":10195768538_0" function="internal">
        <lane id=":10195768538_0_0" index="0" allow="pedestrian delivery bicycle" speed="3.65" length="4.67" shape="226.24,211.27 225.96,212.68 225.37,213.36 224.48,213.29 223.28,212.48"/>
    </edge>
    <edge id=":107627051#4-AddedOnRampNode_0" function="internal">
        <lane id=":107627051#4-AddedOnRampNode_0_0" index="0" disallow="pedestrian bicycle tram rail_urban rail rail_electric rail_fast ship container cable_car subway aircraft wheelchair scooter drone" speed="13.89" length="8.00" shape="595.93,152.39 600.16,159.18"/>
        <lane id=":107627051#4-AddedOnRampNode_0_1" index="1" disallow="pedestrian bicycle tram rail_urban rail rail_electric rail_fast ship container cable_car subway aircraft wheelchair scooter drone" speed="13.89" length="8.00" shape="593.22,154.09 597.45,160.88"/>
    </edge>
    <edge id=":10846629845_0" function="internal">
        <lane id=":10846629845_0_0" index="0" disallow="pedestrian bicycle tram rail_urban rail rail_electric rail_fast ship container cable_car subway aircraft wheelchair scooter drone" speed="10.04" length="7.32" shape="321.83,27.40 320.25,26.04 318.88,25.51 317.31,25.38 315.13,25.20"/>
    </edge>
    <edge id=":10846629845_1" function="internal">
        <lane id=":10846629845_1_0" index="0" disallow="pedestrian bicycle tram rail_urban rail rail_electric rail_fast ship container cable_car subway aircraft wheelchair scooter drone" speed="27.78" length="7.39" shape="321.83,27.40 320.35,25.79 319.40,24.63 318.51,23.41 317.20,21.65"/>
    </edge>
    <edge id=":10846629847_0" function="internal">
        <lane id=":10846629847_0_0" index="0" disallow="pedestrian bicycle tram rail_urban rail rail_electric rail_fast ship container cable_car subway aircraft wheelchair scooter drone" speed="6.18" length="10.23" shape="311.00,11.23 310.16,8.04 310.46,5.76 311.91,4.37 314.49,3.87"/>
    </edge>
    <edge id=":10846629847_1" function="internal">
        <lane id=":10846629847_1_0" index="0" disallow="pedestrian bicycle tram rail_urban rail rail_electric rail_fast ship container cable_car subway aircraft wheelchair scooter drone" speed="9.20" length="12.63" shape="304.94,11.05 306.76,7.94 308.95,5.71 311.53,4.35 314.49,3.87"/>
    </edge>
    <edge id=":10846629848_0" function="internal">
        <lane id=":10846629848_0_0" index="0" disallow="pedestrian bicycle tram rail_urban rail rail_electric rail_fast ship container cable_car subway aircraft wheelchair scooter drone" speed="9.15" length="7.96" shape="400.08,39.83 396.97,40.09 394.63,40.41 393.08,40.78 392.31,41.21"/>
    </edge>
    <edge id=":10846629848_1" function="internal">
        <lane id=":10846629848_1_0" index="0" disallow="pedestrian bicycle tram rail_urban rail rail_electric rail_fast ship container cable_car subway aircraft wheelchair scooter drone" speed="27.78" length="9.80" shape="397.41,32.89 396.11,35.49 395.19,37.27 394.11,38.94 392.31,41.21"/>
    </edge>
    <edge id=":10922912325_0" function="internal">
        <lane id=":10922912325_0_0" index="0" disallow="pedestrian bicycle tram rail_urban rail rail_electric rail_fast ship container cable_car subway aircraft wheelchair scooter drone" speed="8.87" length="19.00" width="10.00" shape="1301.82,518.26 1302.45,526.00 1302.25,531.54 1301.21,534.88 1299.34,536.03"/>
    </edge>
    <edge id=":10922912325_1" function="internal">
        <lane id=":10922912325_1_0" index="0" disallow="pedestrian bicycle tram rail_urban rail rail_electric rail_fast ship container cable_car subway aircraft wheelchair scooter drone" speed="6.45" length="7.30" width="10.00" shape="1299.13,526.03 1302.93,528.45 1304.23,530.93"/>
    </edge>
    <edge id=":10922912325_2" function="internal">
        <lane id=":10922912325_2_0" index="0" disallow="pedestrian bicycle tram rail_urban rail rail_electric rail_fast ship container cable_car subway aircraft wheelchair scooter drone" speed="6.45" length="7.30" width="10.00" shape="1304.23,530.93 1303.03,533.45 1299.34,536.03"/>
    </edge>
    <edge id=":11043263377_0" function="internal">
        <lane id=":11043263377_0_0" index="0" allow="pedestrian delivery bicycle" speed="3.65" length="4.67" shape="1126.26,556.56 1124.94,555.98 1124.41,555.26 1124.66,554.40 1125.71,553.41"/>
    </edge>
    <edge id=":11043263382_0" function="internal">
        <lane id=":11043263382_0_0" index="0" disallow="pedestrian bicycle tram rail_urban rail rail_electric rail_fast ship container cable_car subway aircraft wheelchair scooter drone" speed="13.89" length="10.10" width="10.00" shape="1288.88,536.24 1278.79,536.45"/>
    </edge>
    <edge id=":11043263382_1" function="internal">
        <lane id=":11043263382_1_0" index="0" disallow="pedestrian bicycle tram rail_urban rail rail_electric rail_fast ship container cable_car subway aircraft wheelchair scooter drone" speed="8.07" length="8.60" shape="1288.88,536.24 1283.34,534.67 1281.62,532.41"/>
    </edge>
    <edge id=":11043263382_2" function="internal">
        <lane id=":11043263382_2_0" index="0" disallow="pedestrian bicycle tram rail_urban rail rail_electric rail_fast ship container cable_car subway aircraft wheelchair scooter drone" speed="6.45" length="6.37" width="10.00" shape="1288.88,536.24 1285.08,533.82 1284.21,532.17"/>
    </edge>
    <edge id=":11043263382_6" function="internal">
        <lane id=":11043263382_6_0" index="0" disallow="pedestrian bicycle tram rail_urban rail rail_electric rail_fast ship container cable_car subway aircraft wheelchair scooter drone" speed="8.07" length="12.87" shape="1281.62,532.41 1280.29,530.66 1280.26,525.68 1283.77,521.19"/>
    </edge>
    <edge id=":11043263382_7" function="internal">
        <lane id=":11043263382_7_0" index="0" disallow="pedestrian bicycle tram rail_urban rail rail_electric rail_fast ship container cable_car subway aircraft wheelchair scooter drone" speed="6.45" length="8.23" width="10.00" shape="1284.21,532.17 1283.78,531.34 1284.98,528.82 1288.68,526.24"/>
    </edge>
    <edge id=":11043263382_3" function="internal">
        <lane id=":11043263382_3_0" index="0" disallow="pedestrian bicycle tram rail_urban rail rail_electric rail_fast ship container cable_car subway aircraft wheelchair scooter drone" speed="12.10" length="7.77" shape="1278.60,526.45 1280.54,525.90 1281.43,524.58 1282.20,522.89 1283.77,521.19"/>
    </edge>
    <edge id=":11043263382_4" function="internal">
        <lane id=":11043263382_4_0" index="0" disallow="pedestrian bicycle tram rail_urban rail rail_electric rail_fast ship container cable_car subway aircraft wheelchair scooter drone" speed="13.89" length="10.08" width="10.00" shape="1278.60,526.45 1288.68,526.24"/>
    </edge>
    <edge id=":11043263382_5" function="internal">
        <lane id=":11043263382_5_0" index="0" disallow="pedestrian bicycle tram rail_urban rail rail_electric rail_fast ship container cable_car subway aircraft wheelchair scooter drone" speed="6.45" length="6.36" width="10.00" shape="1278.60,526.45 1282.40,528.88 1283.26,530.53"/>
    </edge>
    <edge id=":11043263382_8" function="internal">
        <lane id=":11043263382_8_0" index="0" disallow="pedestrian bicycle tram rail_urban rail rail_electric rail_fast ship container cable_car subway aircraft wheelchair scooter drone" speed="6.45" length="8.24" width="10.00" shape="1283.26,530.53 1283.69,531.36 1282.49,533.88 1278.79,536.45"/>
    </edge>
    <edge id=":11043333572_0" function="internal">
        <lane id=":11043333572_0_0" index="0" allow="pedestrian delivery bicycle" speed="3.65" length="4.67" shape="293.30,139.14 294.43,140.05 294.75,140.88 294.28,141.64 293.01,142.33"/>
    </edge>
    <edge id=":11043333577_0" function="internal">
        <lane id=":11043333577_0_0" index="0" disallow="tram rail_urban rail rail_electric rail_fast ship container cable_car subway aircraft wheelchair scooter drone" speed="6.58" length="8.75" shape="686.54,815.31 684.80,813.72 682.93,813.02 680.93,813.22 678.81,814.33"/>
    </edge>
    <edge id=":11043333577_1" function="internal">
        <lane id=":11043333577_1_0" index="0" disallow="tram rail_urban rail rail_electric rail_fast ship container cable_car subway aircraft wheelchair scooter drone" speed="13.89" length="13.81" shape="686.54,815.31 684.31,812.53 682.31,809.86 680.39,807.12 678.43,804.14"/>
    </edge>
    <edge id=":11043333577_2" function="internal">
        <lane id=":11043333577_2_0" index="0" disallow="tram rail_urban rail rail_electric rail_fast ship container cable_car subway aircraft wheelchair scooter drone" speed="3.65" length="1.44" shape="686.54,815.31 686.40,813.88"/>
    </edge>
    <edge id=":11043333577_9" function="internal">
        <lane id=":11043333577_9_0" index="0" disallow="tram rail_urban rail rail_electric rail_fast ship container cable_car subway aircraft wheelchair scooter drone" speed="3.65" length="3.23" shape="686.40,813.88 686.76,813.06 687.63,812.86 689.01,813.28"/>
    </edge>
    <edge id=":11043333577_3" function="internal">
        <lane id=":11043333577_3_0" index="0" disallow="tram rail_urban rail rail_electric rail_fast ship container cable_car subway aircraft wheelchair scooter drone" speed="13.89" length="13.42" shape="681.13,802.42 683.05,805.35 684.89,807.98 686.82,810.55 689.01,813.28"/>
    </edge>
    <edge id=":11043333577_4" function="internal">
        <lane id=":11043333577_4_0" index="0" disallow="tram rail_urban rail rail_electric rail_fast ship container cable_car subway aircraft wheelchair scooter drone" speed="8.01" length="3.87" shape="681.13,802.42 682.67,805.81 682.68,805.95"/>
    </edge>
    <edge id=":11043333577_5" function="internal">
        <lane id=":11043333577_5_0" index="0" disallow="tram rail_urban rail rail_electric rail_fast ship container cable_car subway aircraft wheelchair scooter drone" speed="3.65" length="1.44" shape="681.13,802.42 681.10,803.86"/>
    </edge>
    <edge id=":11043333577_10" function="internal">
        <lane id=":11043333577_10_0" index="0" disallow="tram rail_urban rail rail_electric rail_fast ship container cable_car subway aircraft wheelchair scooter drone" speed="8.01" length="9.81" shape="682.68,805.95 682.80,808.93 681.52,811.76 678.81,814.33"/>
    </edge>
    <edge id=":11043333577_11" function="internal">
        <lane id=":11043333577_11_0" index="0" disallow="tram rail_urban rail rail_electric rail_fast ship container cable_car subway aircraft wheelchair scooter drone" speed="3.65" length="3.23" shape="681.10,803.86 680.64,804.63 679.75,804.72 678.43,804.14"/>
    </edge>
    <edge id=":11043333577_6" function="internal">
        <lane id=":11043333577_6_0" index="0" disallow="tram rail_urban rail rail_electric rail_fast ship container cable_car subway aircraft wheelchair scooter drone" speed="6.51" length="8.71" shape="676.96,811.72 678.68,810.09 679.50,808.28 679.42,806.30 678.43,804.14"/>
    </edge>
    <edge id=":11043333577_7" function="internal">
        <lane id=":11043333577_7_0" index="0" disallow="tram rail_urban rail rail_electric rail_fast ship container cable_car subway aircraft wheelchair scooter drone" speed="8.06" length="13.65" shape="676.96,811.72 680.26,810.00 683.37,809.69 686.29,810.78 689.01,813.28"/>
    </edge>
    <edge id=":11043333577_8" function="internal">
        <lane id=":11043333577_8_0" index="0" disallow="tram rail_urban rail rail_electric rail_fast ship container cable_car subway aircraft wheelchair scooter drone" speed="3.65" length="1.44" shape="676.96,811.72 678.40,811.68"/>
    </edge>
    <edge id=":11043333577_12" function="internal">
        <lane id=":11043333577_12_0" index="0" disallow="tram rail_urban rail rail_electric rail_fast ship container cable_car subway aircraft wheelchair scooter drone" speed="3.65" length="3.23" shape="678.40,811.68 679.19,812.10 679.33,812.98 678.81,814.33"/>
    </edge>
    <edge id=":11043333578_0" function="internal">
        <lane id=":11043333578_0_0" index="0" disallow="tram rail_urban rail rail_electric rail_fast ship container cable_car subway aircraft wheelchair scooter drone" speed="13.89" length="9.40" shape="638.54,846.80 633.04,839.18"/>
    </edge>
    <edge id=":11043333578_1" function="internal">
        <lane id=":11043333578_1_0" index="0" disallow="tram rail_urban rail rail_electric rail_fast ship container cable_car subway aircraft wheelchair scooter drone" speed="6.07" length="7.77" shape="638.54,846.80 637.08,844.45 636.41,842.51 636.51,840.98 637.40,839.87"/>
    </edge>
    <edge id=":11043333578_2" function="internal">
        <lane id=":11043333578_2_0" index="0" disallow="tram rail_urban rail rail_electric rail_fast ship container cable_car subway aircraft wheelchair scooter drone" speed="6.10" length="7.77" shape="639.25,842.48 637.91,842.95 636.43,842.55 634.81,841.30 633.04,839.18"/>
    </edge>
    <edge id=":11043333578_3" function="internal">
        <lane id=":11043333578_3_0" index="0" disallow="tram rail_urban rail rail_electric rail_fast ship container cable_car subway aircraft wheelchair scooter drone" speed="3.65" length="4.67" shape="639.25,842.48 637.81,842.52 637.02,842.10 636.88,841.22 637.40,839.87"/>
    </edge>
    <edge id=":11043333579_0" function="internal">
        <lane id=":11043333579_0_0" index="0" allow="pedestrian delivery bicycle" speed="3.65" length="4.67" shape="1224.63,639.19 1225.19,637.86 1225.90,637.32 1226.76,637.56 1227.77,638.59"/>
    </edge>
    <edge id=":11043368658_0" function="internal">
        <lane id=":11043368658_0_0" index="0" allow="pedestrian delivery bicycle" speed="5.56" length="11.36" shape="726.04,55.15 724.41,43.91"/>
    </edge>
    <edge id=":11043368658_1" function="internal">
        <lane id=":11043368658_1_0" index="0" allow="pedestrian delivery bicycle" speed="5.56" length="4.72" shape="726.04,55.15 725.92,50.42"/>
    </edge>
    <edge id=":11043368658_2" function="internal">
        <lane id=":11043368658_2_0" index="0" allow="pedestrian delivery bicycle" speed="3.65" length="1.44" shape="726.04,55.15 726.66,53.84"/>
    </edge>
    <edge id=":11043368658_9" function="internal">
        <lane id=":11043368658_9_0" index="0" allow="pedestrian delivery bicycle" speed="5.56" length="10.38" shape="725.92,50.42 727.28,47.94 730.09,47.69 734.38,49.68"/>
    </edge>
    <edge id=":11043368658_10" function="internal">
        <lane id=":11043368658_10_0" index="0" allow="pedestrian delivery bicycle" speed="3.65" length="3.23" shape="726.66,53.84 727.39,53.33 728.24,53.61 729.20,54.69"/>
    </edge>
    <edge id=":11043368658_3" function="internal">
        <lane id=":11043368658_3_0" index="0" allow="pedestrian delivery bicycle" speed="4.66" length="6.31" shape="732.69,52.40 730.90,51.57 729.72,51.67 729.16,52.71 729.20,54.69"/>
    </edge>
    <edge id=":11043368658_4" function="internal">
        <lane id=":11043368658_4_0" index="0" allow="pedestrian delivery bicycle" speed="5.56" length="12.15" shape="732.69,52.40 729.27,50.07 726.75,47.88 725.13,45.82 724.41,43.91"/>
    </edge>
    <edge id=":11043368658_5" function="internal">
        <lane id=":11043368658_5_0" index="0" allow="pedestrian delivery bicycle" speed="3.65" length="1.44" shape="732.69,52.40 732.09,51.09"/>
    </edge>
    <edge id=":11043368658_11" function="internal">
        <lane id=":11043368658_11_0" index="0" allow="pedestrian delivery bicycle" speed="3.65" length="3.23" shape="732.09,51.09 732.17,50.20 732.94,49.73 734.38,49.68"/>
    </edge>
    <edge id=":11043368658_6" function="internal">
        <lane id=":11043368658_6_0" index="0" allow="pedestrian delivery bicycle" speed="5.56" length="9.39" shape="727.58,43.45 728.12,44.67 729.44,46.12 731.52,47.79 734.38,49.68"/>
    </edge>
    <edge id=":11043368658_7" function="internal">
        <lane id=":11043368658_7_0" index="0" allow="pedestrian delivery bicycle" speed="5.56" length="11.36" shape="727.58,43.45 729.20,54.69"/>
    </edge>
    <edge id=":11043368658_8" function="internal">
        <lane id=":11043368658_8_0" index="0" allow="pedestrian delivery bicycle" speed="3.65" length="1.44" shape="727.58,43.45 726.96,44.75"/>
    </edge>
    <edge id=":11043368658_12" function="internal">
        <lane id=":11043368658_12_0" index="0" allow="pedestrian delivery bicycle" speed="3.65" length="3.23" shape="726.96,44.75 726.22,45.26 725.37,44.98 724.41,43.91"/>
    </edge>
    <edge id=":11043368663_0" function="internal">
        <lane id=":11043368663_0_0" index="0" allow="pedestrian delivery bicycle" speed="5.56" length="2.44" shape="748.02,87.95 747.86,88.65 747.68,89.12 747.41,89.53 746.94,90.08"/>
    </edge>
    <edge id=":11043368663_1" function="internal">
        <lane id=":11043368663_1_0" index="0" allow="pedestrian delivery bicycle" speed="5.56" length="0.81" shape="744.54,87.97 744.70,87.79 744.79,87.65 744.84,87.49 744.90,87.26"/>
    </edge>
    <edge id=":11043368668_0" function="internal">
        <lane id=":11043368668_0_0" index="0" allow="pedestrian delivery bicycle" speed="3.65" length="4.67" shape="720.07,97.78 719.49,99.10 718.76,99.63 717.91,99.37 716.92,98.32"/>
    </edge>
    <edge id=":11043368669_0" function="internal">
        <lane id=":11043368669_0_0" index="0" allow="pedestrian delivery bicycle" speed="5.01" length="5.04" shape="704.42,25.01 704.00,23.69 703.25,22.84 702.19,22.45 700.80,22.53"/>
    </edge>
    <edge id=":11043368669_1" function="internal">
        <lane id=":11043368669_1_0" index="0" allow="pedestrian delivery bicycle" speed="3.65" length="4.67" shape="704.42,25.01 705.01,23.69 705.73,23.17 706.59,23.43 707.58,24.47"/>
    </edge>
    <edge id=":11043368669_2" function="internal">
        <lane id=":11043368669_2_0" index="0" allow="pedestrian delivery bicycle" speed="5.07" length="5.08" shape="710.10,20.81 708.80,21.23 707.94,21.98 707.53,23.06 707.58,24.47"/>
    </edge>
    <edge id=":11043368669_3" function="internal">
        <lane id=":11043368669_3_0" index="0" disallow="tram rail_urban rail rail_electric rail_fast ship container cable_car subway aircraft wheelchair scooter drone" speed="22.22" length="9.46" shape="710.10,20.81 700.80,22.53"/>
    </edge>
    <edge id=":11043368672_0" function="internal">
        <lane id=":11043368672_0_0" index="0" disallow="tram rail_urban rail rail_electric rail_fast ship container cable_car subway aircraft wheelchair scooter drone" speed="3.65" length="4.67" shape="873.02,277.41 872.84,278.84 872.31,279.56 871.41,279.56 870.16,278.85"/>
    </edge>
    <edge id=":11043368677_0" function="internal">
        <lane id=":11043368677_0_0" index="0" disallow="pedestrian bicycle tram rail_urban rail rail_electric rail_fast ship container cable_car subway aircraft wheelchair scooter drone" speed="6.99" length="9.88" shape="737.32,401.24 736.20,404.14 736.00,406.58 736.71,408.56 738.33,410.08"/>
    </edge>
    <edge id=":11043368677_1" function="internal">
        <lane id=":11043368677_1_0" index="0" disallow="tram rail_urban rail rail_electric rail_fast ship container cable_car subway aircraft wheelchair scooter drone" speed="3.65" length="1.44" shape="737.32,401.24 736.07,401.96"/>
    </edge>
    <edge id=":11043368677_5" function="internal">
        <lane id=":11043368677_5_0" index="0" disallow="tram rail_urban rail rail_electric rail_fast ship container cable_car subway aircraft wheelchair scooter drone" speed="3.65" length="3.23" shape="736.07,401.96 735.17,401.96 734.64,401.24 734.46,399.81"/>
    </edge>
    <edge id=":11043368677_2" function="internal">
        <lane id=":11043368677_2_0" index="0" disallow="pedestrian bicycle tram rail_urban rail rail_electric rail_fast ship container cable_car subway aircraft wheelchair scooter drone" speed="5.81" length="9.34" shape="727.43,401.07 729.33,402.86 731.14,403.24 732.85,402.22 734.46,399.81"/>
    </edge>
    <edge id=":11043368677_3" function="internal">
        <lane id=":11043368677_3_0" index="0" disallow="pedestrian bicycle tram rail_urban rail rail_electric rail_fast ship container cable_car subway aircraft wheelchair scooter drone" speed="13.89" length="16.68" shape="727.43,401.07 730.13,404.30 732.27,406.26 734.71,407.88 738.33,410.08"/>
        <lane id=":11043368677_3_1" index="1" disallow="pedestrian bicycle tram rail_urban rail rail_electric rail_fast ship container cable_car subway aircraft wheelchair scooter drone" speed="13.89" length="16.68" shape="725.35,403.60 729.03,407.83 732.02,410.26 735.44,412.24 740.35,415.08"/>
    </edge>
    <edge id=":11043368680_0" function="internal">
        <lane id=":11043368680_0_0" index="0" allow="pedestrian delivery bicycle" speed="4.99" length="5.06" shape="702.36,451.87 703.02,450.64 703.11,449.51 702.64,448.48 701.60,447.55"/>
    </edge>
    <edge id=":11043368680_1" function="internal">
        <lane id=":11043368680_1_0" index="0" disallow="tram rail_urban rail rail_electric rail_fast ship container cable_car subway aircraft wheelchair scooter drone" speed="22.22" length="2.59" shape="702.36,451.87 703.90,449.79"/>
    </edge>
    <edge id=":11043368688_0" function="internal">
        <lane id=":11043368688_0_0" index="0" allow="pedestrian delivery bicycle" speed="3.65" length="4.67" shape="582.19,314.87 582.15,313.43 582.57,312.64 583.45,312.51 584.80,313.02"/>
    </edge>
    <edge id=":11043368691_0" function="internal">
        <lane id=":11043368691_0_0" index="0" allow="delivery" speed="5.67" length="5.75" shape="671.14,330.10 670.31,329.09 669.18,328.55 667.76,328.48 666.04,328.89"/>
    </edge>
    <edge id=":11043368691_1" function="internal">
        <lane id=":11043368691_1_0" index="0" disallow="pedestrian bicycle tram rail_urban rail rail_electric rail_fast ship container cable_car subway aircraft wheelchair scooter drone" speed="13.89" length="9.49" shape="671.14,330.10 666.57,321.78"/>
        <lane id=":11043368691_1_1" index="1" disallow="pedestrian bicycle tram rail_urban rail rail_electric rail_fast ship container cable_car subway aircraft wheelchair scooter drone" speed="13.89" length="9.49" shape="673.95,328.56 669.38,320.24"/>
    </edge>
    <edge id=":11043368691_3" function="internal">
        <lane id=":11043368691_3_0" index="0" allow="delivery" speed="4.88" length="5.22" shape="665.00,325.86 666.30,325.19 667.00,324.29 667.09,323.15 666.57,321.78"/>
    </edge>
    <edge id=":11043368691_4" function="internal">
        <lane id=":11043368691_4_0" index="0" allow="pedestrian delivery bicycle" speed="3.65" length="1.44" shape="665.00,325.86 666.39,326.23"/>
    </edge>
    <edge id=":11043368691_5" function="internal">
        <lane id=":11043368691_5_0" index="0" allow="pedestrian delivery bicycle" speed="3.65" length="3.23" shape="666.39,326.23 667.03,326.86 666.91,327.74 666.04,328.89"/>
    </edge>
    <edge id=":11043368692_0" function="internal">
        <lane id=":11043368692_0_0" index="0" allow="pedestrian delivery bicycle" speed="3.65" length="4.67" shape="581.32,264.22 579.90,263.97 579.22,263.40 579.26,262.50 580.04,261.29"/>
    </edge>
    <edge id=":11043368693_0" function="internal">
        <lane id=":11043368693_0_0" index="0" allow="delivery" speed="5.03" length="5.01" shape="626.48,247.32 625.68,246.20 624.72,245.61 623.59,245.54 622.29,246.00"/>
    </edge>
    <edge id=":11043368693_1" function="internal">
        <lane id=":11043368693_1_0" index="0" disallow="pedestrian bicycle tram rail_urban rail rail_electric rail_fast ship container cable_car subway aircraft wheelchair scooter drone" speed="13.89" length="9.35" shape="626.48,247.32 622.24,238.96"/>
        <lane id=":11043368693_1_1" index="1" disallow="pedestrian bicycle tram rail_urban rail rail_electric rail_fast ship container cable_car subway aircraft wheelchair scooter drone" speed="13.89" length="9.35" shape="629.32,245.85 625.10,237.53"/>
    </edge>
    <edge id=":11043368693_3" function="internal">
        <lane id=":11043368693_3_0" index="0" allow="delivery" speed="5.10" length="5.05" shape="620.81,243.17 621.94,242.35 622.56,241.38 622.66,240.25 622.24,238.96"/>
    </edge>
    <edge id=":11043368693_4" function="internal">
        <lane id=":11043368693_4_0" index="0" allow="pedestrian delivery bicycle" speed="3.65" length="1.44" shape="620.81,243.17 622.24,243.32"/>
    </edge>
    <edge id=":11043368693_5" function="internal">
        <lane id=":11043368693_5_0" index="0" allow="pedestrian delivery bicycle" speed="3.65" length="3.23" shape="622.24,243.32 622.97,243.84 622.98,244.74 622.29,246.00"/>
    </edge>
    <edge id=":11043368694_0" function="internal">
        <lane id=":11043368694_0_0" index="0" allow="pedestrian delivery bicycle" speed="3.65" length="4.67" shape="583.46,230.78 584.84,231.22 585.44,231.88 585.27,232.76 584.33,233.86"/>
    </edge>
    <edge id=":11043368695_0" function="internal">
        <lane id=":11043368695_0_0" index="0" allow="pedestrian delivery bicycle" speed="3.65" length="4.67" shape="556.94,223.57 558.31,224.02 558.91,224.69 558.74,225.56 557.80,226.66"/>
    </edge>
    <edge id=":11043368696_0" function="internal">
        <lane id=":11043368696_0_0" index="0" disallow="tram rail_urban rail rail_electric rail_fast ship container cable_car subway aircraft wheelchair scooter drone" speed="13.89" length="9.35" shape="519.31,240.52 516.93,231.48"/>
    </edge>
    <edge id=":11043368696_1" function="internal">
        <lane id=":11043368696_1_0" index="0" allow="pedestrian delivery bicycle" speed="6.90" length="3.20" shape="519.31,240.52 519.01,237.79 519.14,237.35"/>
    </edge>
    <edge id=":11043368696_7" function="internal">
        <lane id=":11043368696_7_0" index="0" allow="pedestrian delivery bicycle" speed="6.90" length="6.93" shape="519.14,237.35 519.66,235.59 521.27,233.93 523.83,232.82"/>
    </edge>
    <edge id=":11043368696_2" function="internal">
        <lane id=":11043368696_2_0" index="0" allow="pedestrian delivery bicycle" speed="5.09" length="5.05" shape="524.69,235.90 523.40,236.46 522.60,237.28 522.26,238.37 522.41,239.72"/>
    </edge>
    <edge id=":11043368696_3" function="internal">
        <lane id=":11043368696_3_0" index="0" allow="pedestrian delivery bicycle" speed="6.85" length="10.21" shape="524.69,235.90 521.91,236.26 519.69,235.65 518.03,234.05 516.93,231.48"/>
    </edge>
    <edge id=":11043368696_4" function="internal">
        <lane id=":11043368696_4_0" index="0" allow="pedestrian delivery bicycle" speed="3.65" length="1.44" shape="524.69,235.90 523.31,235.45"/>
    </edge>
    <edge id=":11043368696_8" function="internal">