<?xml version="1.0" encoding="UTF-8"?>

<!-- generated on 2026-02-04 19:16:42 by Eclipse SUMO netconvert Version 1.22.0
<netconvertConfiguration xmlns:xsi="http://www.w3.org/2001/XMLSchema-instance" xsi:noNamespaceSchemaLocation="http://sumo.dlr.de/xsd/netconvertConfiguration.xsd">

    <input>
        <osm-files value="data/sumo/network/ibarra_mayorista_con_tls.osm"/>
    </input>

    <output>
        <output-file value="data/sumo/network/ibarra_mayorista_10cuadras.net.xml"/>
    </output>

    <projection>
        <proj.utm value="true"/>
    </projection>

    <processing>
        <geometry.remove value="true"/>
    </processing>

    <tls_building>
        <tls.default-type value="actuated"/>
    </tls_building>

    <edge_removal>
        <keep-edges.by-vclass value="passenger"/>
        <remove-edges.isolated value="true"/>
    </edge_removal>

</netconvertConfiguration>
-->

<net version="1.20" junctionCornerDetail="5" limitTurnSpeed="5.50" xmlns:xsi="http://www.w3.org/2001/XMLSchema-instance" xsi:noNamespaceSchemaLocation="http://sumo.dlr.de/xsd/net_file.xsd">

    <location netOffset="-819857.22,-39522.38" convBoundary="0.00,0.00,882.42,880.75" origBoundary="-78.126680,0.357108,-78.118759,0.365076" projParameter="+proj=utm +zone=17 +ellps=WGS84 +datum=WGS84 +units=m +no_defs"/>

    <type id="highway.primary" priority="12" numLanes="2" speed="27.78" disallow="tram rail_urban rail rail_electric rail_fast ship container cable_car subway aircraft wheelchair scooter drone" oneway="0"/>
    <type id="highway.residential" priority="3" numLanes="1" speed="13.89" disallow="tram rail_urban rail rail_electric rail_fast ship container cable_car subway aircraft wheelchair scooter drone" oneway="0"/>
    <type id="highway.tertiary" priority="10" numLanes="1" speed="22.22" disallow="tram rail_urban rail rail_electric rail_fast ship container cable_car subway aircraft wheelchair scooter drone" oneway="0"/>
    <type id="highway.trunk" priority="13" numLanes="2" speed="27.78" disallow="pedestrian bicycle tram rail_urban rail rail_electric rail_fast ship container cable_car subway aircraft wheelchair scooter drone" oneway="0"/>

    <edge id=":10018927538_0" function="internal">
        <lane id=":10018927538_0_0" index="0" disallow="pedestrian bicycle tram rail_urban rail rail_electric rail_fast ship container cable_car subway aircraft wheelchair scooter drone" speed="6.53" length="9.13" shape="784.08,436.41 786.42,437.92 788.54,438.46 790.44,438.01 792.12,436.58"/>
    </edge>
    <edge id=":10018927538_1" function="internal">
        <lane id=":10018927538_1_0" index="0" disallow="pedestrian bicycle tram rail_urban rail rail_electric rail_fast ship container cable_car subway aircraft wheelchair scooter drone" speed="13.89" length="11.52" shape="784.08,436.41 786.67,438.53 788.49,439.93 790.39,441.20 793.26,442.93"/>
        <lane id=":10018927538_1_1" index="1" disallow="pedestrian bicycle tram rail_urban rail rail_electric rail_fast ship container cable_car subway aircraft wheelchair scooter drone" speed="13.89" length="11.52" shape="782.05,438.88 784.76,441.10 786.65,442.56 788.64,443.88 791.63,445.69"/>
    </edge>
    <edge id=":10018927538_3" function="internal">
        <lane id=":10018927538_3_0" index="0" disallow="tram rail_urban rail rail_electric rail_fast ship container cable_car subway aircraft wheelchair scooter drone" speed="20.84" length="13.21" shape="784.13,446.96 785.97,443.32 787.86,440.94 789.88,438.98 792.12,436.58"/>
    </edge>
    <edge id=":10018927538_4" function="internal">
        <lane id=":10018927538_4_0" index="0" disallow="pedestrian bicycle tram rail_urban rail rail_electric rail_fast ship container cable_car subway aircraft wheelchair scooter drone" speed="5.22" length="6.06" shape="787.10,448.15 788.01,446.44 789.07,445.46 790.28,445.21 791.63,445.69"/>
    </edge>
    <edge id=":10018927539_0" function="internal">
        <lane id=":10018927539_0_0" index="0" disallow="pedestrian bicycle tram rail_urban rail rail_electric rail_fast ship container cable_car subway aircraft wheelchair scooter drone" speed="9.12" length="10.23" shape="795.48,440.68 795.88,442.48 797.06,444.36 799.02,446.31 801.75,448.35"/>
    </edge>
    <edge id=":10018927539_1" function="internal">
        <lane id=":10018927539_1_0" index="0" disallow="tram rail_urban rail rail_electric rail_fast ship container cable_car subway aircraft wheelchair scooter drone" speed="20.84" length="10.90" shape="795.48,440.68 795.73,443.77 796.10,446.10 796.17,448.47 795.48,451.72"/>
        <lane id=":10018927539_1_1" index="1" disallow="tram rail_urban rail rail_electric rail_fast ship container cable_car subway aircraft wheelchair scooter drone" speed="20.84" length="10.90" shape="795.48,440.68 795.24,443.66 794.55,445.71 793.56,447.77 792.42,450.78"/>
    </edge>
    <edge id=":10018927539_3" function="internal">
        <lane id=":10018927539_3_0" index="0" disallow="pedestrian bicycle tram rail_urban rail rail_electric rail_fast ship container cable_car subway aircraft wheelchair scooter drone" speed="13.89" length="9.78" shape="793.43,443.03 801.75,448.35"/>
        <lane id=":10018927539_3_1" index="1" disallow="pedestrian bicycle tram rail_urban rail rail_electric rail_fast ship container cable_car subway aircraft wheelchair scooter drone" speed="13.89" length="9.78" shape="791.80,445.79 799.97,451.01"/>
    </edge>
    <edge id=":10018927539_5" function="internal">
        <lane id=":10018927539_5_0" index="0" disallow="pedestrian bicycle tram rail_urban rail rail_electric rail_fast ship container cable_car subway aircraft wheelchair scooter drone" speed="5.66" length="5.39" shape="791.80,445.79 792.52,446.50 792.87,447.57 792.83,449.00 792.42,450.78"/>
    </edge>
    <edge id=":11043333577_0" function="internal">
        <lane id=":11043333577_0_0" index="0" disallow="tram rail_urban rail rail_electric rail_fast ship container cable_car subway aircraft wheelchair scooter drone" speed="6.58" length="8.75" shape="561.00,575.44 559.26,573.85 557.39,573.15 555.40,573.36 553.28,574.46"/>
    </edge>
    <edge id=":11043333577_1" function="internal">
        <lane id=":11043333577_1_0" index="0" disallow="tram rail_urban rail rail_electric rail_fast ship container cable_car subway aircraft wheelchair scooter drone" speed="13.89" length="13.81" shape="561.00,575.44 558.78,572.66 556.77,569.99 554.85,567.26 552.90,564.28"/>
    </edge>
    <edge id=":11043333577_2" function="internal">
        <lane id=":11043333577_2_0" index="0" disallow="tram rail_urban rail rail_electric rail_fast ship container cable_car subway aircraft wheelchair scooter drone" speed="3.65" length="1.44" shape="561.00,575.44 560.86,574.01"/>
    </edge>
    <edge id=":11043333577_9" function="internal">
        <lane id=":11043333577_9_0" index="0" disallow="tram rail_urban rail rail_electric rail_fast ship container cable_car subway aircraft wheelchair scooter drone" speed="3.65" length="3.23" shape="560.86,574.01 561.22,573.19 562.10,572.99 563.48,573.41"/>
    </edge>
    <edge id=":11043333577_3" function="internal">
        <lane id=":11043333577_3_0" index="0" disallow="tram rail_urban rail rail_electric rail_fast ship container cable_car subway aircraft wheelchair scooter drone" speed="13.89" length="13.42" shape="555.59,562.56 557.51,565.49 559.35,568.12 561.28,570.68 563.48,573.41"/>
    </edge>
    <edge id=":11043333577_4" function="internal">
        <lane id=":11043333577_4_0" index="0" disallow="tram rail_urban rail rail_electric rail_fast ship container cable_car subway aircraft wheelchair scooter drone" speed="8.01" length="3.87" shape="555.59,562.56 557.14,565.94 557.14,566.09"/>
    </edge>
    <edge id=":11043333577_5" function="internal">
        <lane id=":11043333577_5_0" index="0" disallow="tram rail_urban rail rail_electric rail_fast ship container cable_car subway aircraft wheelchair scooter drone" speed="3.65" length="1.44" shape="555.59,562.56 555.56,564.00"/>
    </edge>
    <edge id=":11043333577_10" function="internal">
        <lane id=":11043333577_10_0" index="0" disallow="tram rail_urban rail rail_electric rail_fast ship container cable_car subway aircraft wheelchair scooter drone" speed="8.01" length="9.81" shape="557.14,566.09 557.26,569.06 555.98,571.90 553.28,574.46"/>
    </edge>
    <edge id=":11043333577_11" function="internal">
        <lane id=":11043333577_11_0" index="0" disallow="tram rail_urban rail rail_electric rail_fast ship container cable_car subway aircraft wheelchair scooter drone" speed="3.65" length="3.23" shape="555.56,564.00 555.11,564.76 554.22,564.86 552.90,564.28"/>
    </edge>
    <edge id=":11043333577_6" function="internal">
        <lane id=":11043333577_6_0" index="0" disallow="tram rail_urban rail rail_electric rail_fast ship container cable_car subway aircraft wheelchair scooter drone" speed="6.51" length="8.71" shape="551.42,571.85 553.14,570.22 553.96,568.42 553.88,566.43 552.90,564.28"/>
    </edge>
    <edge id=":11043333577_7" function="internal">
        <lane id=":11043333577_7_0" index="0" disallow="tram rail_urban rail rail_electric rail_fast ship container cable_car subway aircraft wheelchair scooter drone" speed="8.06" length="13.65" shape="551.42,571.85 554.72,570.14 557.83,569.83 560.75,570.92 563.48,573.41"/>
    </edge>
    <edge id=":11043333577_8" function="internal">
        <lane id=":11043333577_8_0" index="0" disallow="tram rail_urban rail rail_electric rail_fast ship container cable_car subway aircraft wheelchair scooter drone" speed="3.65" length="4.67" shape="551.42,571.85 552.86,571.81 553.65,572.23 553.79,573.11 553.28,574.46"/>
    </edge>
    <edge id=":11043333578_0" function="internal">
        <lane id=":11043333578_0_0" index="0" disallow="tram rail_urban rail rail_electric rail_fast ship container cable_car subway aircraft wheelchair scooter drone" speed="13.89" length="9.40" shape="513.00,606.93 507.50,599.31"/>
    </edge>
    <edge id=":11043333578_1" function="internal">
        <lane id=":11043333578_1_0" index="0" disallow="tram rail_urban rail rail_electric rail_fast ship container cable_car subway aircraft wheelchair scooter drone" speed="6.07" length="7.77" shape="513.00,606.93 511.54,604.58 510.87,602.64 510.97,601.12 511.86,600.00"/>
    </edge>
    <edge id=":11043333578_2" function="internal">
        <lane id=":11043333578_2_0" index="0" disallow="tram rail_urban rail rail_electric rail_fast ship container cable_car subway aircraft wheelchair scooter drone" speed="6.10" length="7.77" shape="513.71,602.61 512.37,603.08 510.89,602.69 509.27,601.43 507.50,599.31"/>
    </edge>
    <edge id=":11043333578_3" function="internal">
        <lane id=":11043333578_3_0" index="0" disallow="tram rail_urban rail rail_electric rail_fast ship container cable_car subway aircraft wheelchair scooter drone" speed="3.65" length="4.67" shape="513.71,602.61 512.27,602.65 511.48,602.23 511.34,601.35 511.86,600.00"/>
    </edge>
    <edge id=":11043368672_0" function="internal">
        <lane id=":11043368672_0_0" index="0" disallow="tram rail_urban rail rail_electric rail_fast ship container cable_car subway aircraft wheelchair scooter drone" speed="3.65" length="4.67" shape="747.48,37.54 747.31,38.97 746.77,39.69 745.88,39.69 744.62,38.98"/>
    </edge>
    <edge id=":11043368677_0" function="internal">
        <lane id=":11043368677_0_0" index="0" disallow="pedestrian bicycle tram rail_urban rail rail_electric rail_fast ship container cable_car subway aircraft wheelchair scooter drone" speed="6.99" length="9.88" shape="611.78,161.38 610.67,164.28 610.46,166.72 611.17,168.69 612.80,170.21"/>
    </edge>
    <edge id=":11043368677_1" function="internal">
        <lane id=":11043368677_1_0" index="0" disallow="tram rail_urban rail rail_electric rail_fast ship container cable_car subway aircraft wheelchair scooter drone" speed="3.65" length="4.67" shape="611.78,161.38 610.53,162.09 609.63,162.09 609.10,161.37 608.92,159.94"/>
    </edge>
    <edge id=":11043368677_2" function="internal">
        <lane id=":11043368677_2_0" index="0" disallow="pedestrian bicycle tram rail_urban rail rail_electric rail_fast ship container cable_car subway aircraft wheelchair scooter drone" speed="5.81" length="9.34" shape="601.89,161.20 603.80,162.99 605.60,163.37 607.31,162.36 608.92,159.94"/>
    </edge>
    <edge id=":11043368677_3" function="internal">
        <lane id=":11043368677_3_0" index="0" disallow="pedestrian bicycle tram rail_urban rail rail_electric rail_fast ship container cable_car subway aircraft wheelchair scooter drone" speed="13.89" length="16.68" shape="601.89,161.20 604.59,164.43 606.73,166.40 609.17,168.02 612.80,170.21"/>
        <lane id=":11043368677_3_1" index="1" disallow="pedestrian bicycle tram rail_urban rail rail_electric rail_fast ship container cable_car subway aircraft wheelchair scooter drone" speed="13.89" length="16.68" shape="599.81,163.73 603.49,167.96 606.49,170.40 609.90,172.37 614.81,175.22"/>
    </edge>
    <edge id=":11043368680_0" function="internal">
        <lane id=":11043368680_0_0" index="0" disallow="tram rail_urban rail rail_electric rail_fast ship container cable_car subway aircraft wheelchair scooter drone" speed="22.22" length="2.10" shape="578.71,209.45 577.46,211.14"/>
    </edge>
    <edge id=":11054115894_0" function="internal">
        <lane id=":11054115894_0_0" index="0" disallow="tram rail_urban rail rail_electric rail_fast ship container cable_car subway aircraft wheelchair scooter drone" speed="3.65" length="4.67" shape="509.99,882.33 508.67,881.76 508.12,881.05 508.37,880.19 509.40,879.18"/>
    </edge>
    <edge id=":11054115895_0" function="internal">
        <lane id=":11054115895_0_0" index="0" disallow="tram rail_urban rail rail_electric rail_fast ship container cable_car subway aircraft wheelchair scooter drone" speed="13.89" length="14.36" shape="543.45,876.15 529.32,878.69"/>
    </edge>
    <edge id=":11054115895_1" function="internal">
        <lane id=":11054115895_1_0" index="0" disallow="tram rail_urban rail rail_electric rail_fast ship container cable_car subway aircraft wheelchair scooter drone" speed="8.42" length="3.82" shape="543.45,876.15 539.73,876.22 539.63,876.18"/>
    </edge>
    <edge id=":11054115895_2" function="internal">
        <lane id=":11054115895_2_0" index="0" disallow="tram rail_urban rail rail_electric rail_fast ship container cable_car subway aircraft wheelchair scooter drone" speed="3.65" length="1.44" shape="543.45,876.15 542.13,875.56"/>
    </edge>
    <edge id=":11054115895_9" function="internal">
        <lane id=":11054115895_9_0" index="0" disallow="tram rail_urban rail rail_electric rail_fast ship container cable_car subway aircraft wheelchair scooter drone" speed="8.42" length="10.52" shape="539.63,876.18 536.71,875.04 534.38,872.61 532.74,868.94"/>
    </edge>
    <edge id=":11054115895_10" function="internal">
        <lane id=":11054115895_10_0" index="0" disallow="tram rail_urban rail rail_electric rail_fast ship container cable_car subway aircraft wheelchair scooter drone" speed="3.65" length="3.23" shape="542.13,875.56 541.60,874.84 541.86,873.98 542.91,872.99"/>
    </edge>
    <edge id=":11054115895_3" function="internal">
        <lane id=":11054115895_3_0" index="0" disallow="tram rail_urban rail rail_electric rail_fast ship container cable_car subway aircraft wheelchair scooter drone" speed="7.01" length="9.63" shape="535.81,868.02 536.92,870.54 538.47,872.20 540.47,873.02 542.91,872.99"/>
    </edge>
    <edge id=":11054115895_4" function="internal">
        <lane id=":11054115895_4_0" index="0" disallow="tram rail_urban rail rail_electric rail_fast ship container cable_car subway aircraft wheelchair scooter drone" speed="7.82" length="14.61" shape="535.81,868.02 536.41,872.04 535.53,875.16 533.17,877.37 529.32,878.69"/>
    </edge>
    <edge id=":11054115895_5" function="internal">
        <lane id=":11054115895_5_0" index="0" disallow="tram rail_urban rail rail_electric rail_fast ship container cable_car subway aircraft wheelchair scooter drone" speed="3.65" length="4.67" shape="535.81,868.02 535.39,869.40 534.74,870.01 533.86,869.86 532.74,868.94"/>
    </edge>
    <edge id=":11054115895_6" function="internal">
        <lane id=":11054115895_6_0" index="0" disallow="tram rail_urban rail rail_electric rail_fast ship container cable_car subway aircraft wheelchair scooter drone" speed="6.29" length="9.04" shape="528.73,875.54 531.11,874.73 532.57,873.36 533.12,871.43 532.74,868.94"/>
    </edge>
    <edge id=":11054115895_7" function="internal">
        <lane id=":11054115895_7_0" index="0" disallow="tram rail_urban rail rail_electric rail_fast ship container cable_car subway aircraft wheelchair scooter drone" speed="13.89" length="14.41" shape="528.73,875.54 542.91,872.99"/>
    </edge>
    <edge id=":11054115895_8" function="internal">
        <lane id=":11054115895_8_0" index="0" disallow="tram rail_urban rail rail_electric rail_fast ship container cable_car subway aircraft wheelchair scooter drone" speed="3.65" length="1.44" shape="528.73,875.54 530.05,876.11"/>
    </edge>
    <edge id=":11054115895_11" function="internal">
        <lane id=":11054115895_11_0" index="0" disallow="tram rail_urban rail rail_electric rail_fast ship container cable_car subway aircraft wheelchair scooter drone" speed="3.65" length="3.23" shape="530.05,876.11 530.60,876.82 530.35,877.68 529.32,878.69"/>
    </edge>
    <edge id=":11054115897_0" function="internal">
        <lane id=":11054115897_0_0" index="0" disallow="tram rail_urban rail rail_electric rail_fast ship container cable_car subway aircraft wheelchair scooter drone" speed="3.65" length="4.67" shape="826.84,587.72 827.40,589.05 827.30,589.94 826.53,590.39 825.09,590.40"/>
    </edge>
    <edge id=":11054115904_0" function="internal">
        <lane id=":11054115904_0_0" index="0" disallow="tram rail_urban rail rail_electric rail_fast ship container cable_car subway aircraft wheelchair scooter drone" speed="3.65" length="4.67" shape="825.64,679.49 826.76,680.40 827.08,681.24 826.60,681.99 825.33,682.68"/>
    </edge>
    <edge id=":11054139308_0" function="internal">
        <lane id=":11054139308_0_0" index="0" disallow="tram rail_urban rail rail_electric rail_fast ship container cable_car subway aircraft wheelchair scooter drone" speed="13.89" length="14.74" shape="788.41,631.30 787.56,646.02"/>
    </edge>
    <edge id=":11054139308_1" function="internal">
        <lane id=":11054139308_1_0" index="0" disallow="tram rail_urban rail rail_electric rail_fast ship container cable_car subway aircraft wheelchair scooter drone" speed="7.92" length="4.39" shape="788.41,631.30 787.76,635.21 787.53,635.56"/>
    </edge>
    <edge id=":11054139308_2" function="internal">
        <lane id=":11054139308_2_0" index="0" disallow="tram rail_urban rail rail_electric rail_fast ship container cable_car subway aircraft wheelchair scooter drone" speed="3.65" length="1.44" shape="788.41,631.30 787.58,632.48"/>
    </edge>
    <edge id=":11054139308_9" function="internal">
        <lane id=":11054139308_9_0" index="0" disallow="tram rail_urban rail rail_electric rail_fast ship container cable_car subway aircraft wheelchair scooter drone" speed="7.92" length="9.99" shape="787.53,635.56 786.01,637.92 783.16,639.41 779.20,639.71"/>
    </edge>
    <edge id=":11054139308_10" function="internal">
        <lane id=":11054139308_10_0" index="0" disallow="tram rail_urban rail rail_electric rail_fast ship container cable_car subway aircraft wheelchair scooter drone" speed="3.65" length="3.23" shape="787.58,632.48 786.78,632.86 785.98,632.45 785.21,631.23"/>
    </edge>
    <edge id=":11054139308_3" function="internal">
        <lane id=":11054139308_3_0" index="0" disallow="tram rail_urban rail rail_electric rail_fast ship container cable_car subway aircraft wheelchair scooter drone" speed="6.41" length="9.04" shape="779.42,636.51 781.91,636.33 783.70,635.39 784.80,633.69 785.21,631.23"/>
    </edge>
    <edge id=":11054139308_4" function="internal">
        <lane id=":11054139308_4_0" index="0" disallow="tram rail_urban rail rail_electric rail_fast ship container cable_car subway aircraft wheelchair scooter drone" speed="7.97" length="14.35" shape="779.42,636.51 783.30,637.34 785.94,639.20 787.37,642.09 787.56,646.02"/>
    </edge>
    <edge id=":11054139308_5" function="internal">
        <lane id=":11054139308_5_0" index="0" disallow="tram rail_urban rail rail_electric rail_fast ship container cable_car subway aircraft wheelchair scooter drone" speed="3.65" length="4.67" shape="779.42,636.51 780.57,637.39 780.91,638.22 780.45,638.99 779.20,639.71"/>
    </edge>
    <edge id=":11054139308_6" function="internal">
        <lane id=":11054139308_6_0" index="0" disallow="tram rail_urban rail rail_electric rail_fast ship container cable_car subway aircraft wheelchair scooter drone" speed="6.47" length="9.09" shape="784.37,645.72 784.25,643.23 783.35,641.41 781.66,640.23 779.20,639.71"/>
    </edge>
    <edge id=":11054139308_7" function="internal">
        <lane id=":11054139308_7_0" index="0" disallow="tram rail_urban rail rail_electric rail_fast ship container cable_car subway aircraft wheelchair scooter drone" speed="13.89" length="14.51" shape="784.37,645.72 785.21,631.23"/>
    </edge>
    <edge id=":11054139308_8" function="internal">
        <lane id=":11054139308_8_0" index="0" disallow="tram rail_urban rail rail_electric rail_fast ship container cable_car subway aircraft wheelchair scooter drone" speed="3.65" length="1.44" shape="784.37,645.72 785.28,644.60"/>
    </edge>
    <edge id=":11054139308_11" function="internal">
        <lane id=":11054139308_11_0" index="0" disallow="tram rail_urban rail rail_electric rail_fast ship container cable_car subway aircraft wheelchair scooter drone" speed="3.65" length="3.23" shape="785.28,644.60 786.12,644.27 786.88,644.75 787.56,646.02"/>
    </edge>
    <edge id=":11054139310_0" function="internal">
        <lane id=":11054139310_0_0" index="0" disallow="tram rail_urban rail rail_electric rail_fast ship container cable_car subway aircraft wheelchair scooter drone" speed="6.53" length="9.06" shape="765.69,638.84 763.21,639.05 761.38,640.00 760.22,641.69 759.72,644.11"/>
    </edge>
    <edge id=":11054139310_1" function="internal">
        <lane id=":11054139310_1_0" index="0" disallow="tram rail_urban rail rail_electric rail_fast ship container cable_car subway aircraft wheelchair scooter drone" speed="3.65" length="4.67" shape="765.69,638.84 764.54,637.98 764.18,637.16 764.63,636.38 765.87,635.65"/>
    </edge>
    <edge id=":11054139310_2" function="internal">
        <lane id=":11054139310_2_0" index="0" disallow="tram rail_urban rail rail_electric rail_fast ship container cable_car subway aircraft wheelchair scooter drone" speed="6.49" length="9.03" shape="760.63,629.73 760.82,632.20 761.76,634.01 763.44,635.16 765.87,635.65"/>
    </edge>
    <edge id=":11054139310_3" function="internal">
        <lane id=":11054139310_3_0" index="0" disallow="tram rail_urban rail rail_electric rail_fast ship container cable_car subway aircraft wheelchair scooter drone" speed="27.78" length="14.41" shape="760.63,629.73 759.72,644.11"/>
        <lane id=":11054139310_3_1" index="1" disallow="tram rail_urban rail rail_electric rail_fast ship container cable_car subway aircraft wheelchair scooter drone" speed="27.78" length="14.41" shape="757.44,629.52 756.53,643.91"/>
    </edge>
    <edge id=":11054326449_0" function="internal">
        <lane id=":11054326449_0_0" index="0" disallow="tram rail_urban rail rail_electric rail_fast ship container cable_car subway aircraft wheelchair scooter drone" speed="3.65" length="4.67" shape="524.20,693.00 524.65,691.62 525.31,691.02 526.19,691.19 527.29,692.13"/>
    </edge>
    <edge id=":11054326450_0" function="internal">
        <lane id=":11054326450_0_0" index="0" disallow="tram rail_urban rail rail_electric rail_fast ship container cable_car subway aircraft wheelchair scooter drone" speed="13.89" length="14.04" shape="547.60,744.66 534.06,748.37"/>
    </edge>
    <edge id=":11054326450_1" function="internal">
        <lane id=":11054326450_1_0" index="0" disallow="tram rail_urban rail rail_electric rail_fast ship container cable_car subway aircraft wheelchair scooter drone" speed="8.03" length="3.82" shape="547.60,744.66 543.81,745.05"/>
    </edge>
    <edge id=":11054326450_2" function="internal">
        <lane id=":11054326450_2_0" index="0" disallow="tram rail_urban rail rail_electric rail_fast ship container cable_car subway aircraft wheelchair scooter drone" speed="3.65" length="1.44" shape="547.60,744.66 546.24,744.17"/>
    </edge>
    <edge id=":11054326450_9" function="internal">
        <lane id=":11054326450_9_0" index="0" disallow="tram rail_urban rail rail_electric rail_fast ship container cable_car subway aircraft wheelchair scooter drone" speed="8.03" length="10.19" shape="543.81,745.05 540.76,744.15 538.47,741.94 536.93,738.43"/>
    </edge>
    <edge id=":11054326450_10" function="internal">
        <lane id=":11054326450_10_0" index="0" disallow="tram rail_urban rail rail_electric rail_fast ship container cable_car subway aircraft wheelchair scooter drone" speed="3.65" length="3.23" shape="546.24,744.17 545.66,743.50 545.85,742.62 546.82,741.56"/>
    </edge>
    <edge id=":11054326450_3" function="internal">
        <lane id=":11054326450_3_0" index="0" disallow="tram rail_urban rail rail_electric rail_fast ship container cable_car subway aircraft wheelchair scooter drone" speed="6.54" length="8.95" shape="540.01,737.57 541.00,739.81 542.46,741.22 544.40,741.81 546.82,741.56"/>
    </edge>
    <edge id=":11054326450_4" function="internal">
        <lane id=":11054326450_4_0" index="0" disallow="tram rail_urban rail rail_electric rail_fast ship container cable_car subway aircraft wheelchair scooter drone" speed="8.00" length="14.02" shape="540.01,737.57 540.51,741.37 539.69,744.44 537.54,746.77 534.06,748.37"/>
    </edge>
    <edge id=":11054326450_5" function="internal">
        <lane id=":11054326450_5_0" index="0" disallow="tram rail_urban rail rail_electric rail_fast ship container cable_car subway aircraft wheelchair scooter drone" speed="3.65" length="4.67" shape="540.01,737.57 539.56,738.94 538.90,739.54 538.02,739.37 536.93,738.43"/>
    </edge>
    <edge id=":11054326450_6" function="internal">
        <lane id=":11054326450_6_0" index="0" disallow="tram rail_urban rail rail_electric rail_fast ship container cable_car subway aircraft wheelchair scooter drone" speed="6.51" length="8.92" shape="533.14,745.31 535.36,744.29 536.73,742.80 537.25,740.85 536.93,738.43"/>
    </edge>
    <edge id=":11054326450_7" function="internal">
        <lane id=":11054326450_7_0" index="0" disallow="tram rail_urban rail rail_electric rail_fast ship container cable_car subway aircraft wheelchair scooter drone" speed="13.89" length="14.19" shape="533.14,745.31 546.82,741.56"/>
    </edge>
    <edge id=":11054326450_8" function="internal">
        <lane id=":11054326450_8_0" index="0" disallow="tram rail_urban rail rail_electric rail_fast ship container cable_car subway aircraft wheelchair scooter drone" speed="3.65" length="1.44" shape="533.14,745.31 534.52,745.73"/>
    </edge>
    <edge id=":11054326450_11" function="internal">
        <lane id=":11054326450_11_0" index="0" disallow="tram rail_urban rail rail_electric rail_fast ship container cable_car subway aircraft wheelchair scooter drone" speed="3.65" length="3.23" shape="534.52,745.73 535.13,746.38 534.98,747.26 534.06,748.37"/>
    </edge>
    <edge id=":11054326499_0" function="internal">
        <lane id=":11054326499_0_0" index="0" disallow="tram rail_urban rail rail_electric rail_fast ship container cable_car subway aircraft wheelchair scooter drone" speed="3.65" length="4.67" shape="544.23,822.29 545.64,822.58 546.32,823.17 546.25,824.06 545.44,825.25"/>
    </edge>
    <edge id=":11054424363_0" function="internal">
        <lane id=":11054424363_0_0" index="0" disallow="tram rail_urban rail rail_electric rail_fast ship container cable_car subway aircraft wheelchair scooter drone" speed="3.65" length="4.67" shape="813.17,638.92 814.18,637.89 815.04,637.65 815.75,638.20 816.31,639.53"/>
    </edge>
    <edge id=":11054424364_0" function="internal">
        <lane id=":11054424364_0_0" index="0" disallow="tram rail_urban rail rail_electric rail_fast ship container cable_car subway aircraft wheelchair scooter drone" speed="13.89" length="15.52" shape="814.29,681.61 810.49,681.12 806.63,680.38 802.82,679.42 799.17,678.28"/>
    </edge>
    <edge id=":11054424364_1" function="internal">
        <lane id=":11054424364_1_0" index="0" disallow="tram rail_urban rail rail_electric rail_fast ship container cable_car subway aircraft wheelchair scooter drone" speed="7.87" length="4.39" shape="814.29,681.61 810.36,680.64 810.09,680.43"/>
    </edge>
    <edge id=":11054424364_2" function="internal">
        <lane id=":11054424364_2_0" index="0" disallow="tram rail_urban rail rail_electric rail_fast ship container cable_car subway aircraft wheelchair scooter drone" speed="3.65" length="1.44" shape="814.29,681.61 813.17,680.70"/>
    </edge>
    <edge id=":11054424364_9" function="internal">
        <lane id=":11054424364_9_0" index="0" disallow="tram rail_urban rail rail_electric rail_fast ship container cable_car subway aircraft wheelchair scooter drone" speed="7.87" length="10.31" shape="810.09,680.43 807.81,678.62 806.64,675.55 806.85,671.44"/>
    </edge>
    <edge id=":11054424364_10" function="internal">
        <lane id=":11054424364_10_0" index="0" disallow="tram rail_urban rail rail_electric rail_fast ship container cable_car subway aircraft wheelchair scooter drone" speed="3.65" length="3.23" shape="813.17,680.70 812.85,679.86 813.33,679.11 814.60,678.43"/>
    </edge>