<?xml version="1.0" encoding="UTF-8"?>
<additional>
  <!-- Detectores E2 para semáforos de Ibarra Mayorista -->
  <!-- Total: 114 detectores -->

  <laneAreaDetector id="e2__1189297793_0" lane="-1189297793_0" pos="4.7" length="38.8" freq="1" friendlyPos="true"/>
  <laneAreaDetector id="e2_750471838_0_0" lane="750471838#0_0" pos="0.0" length="17.7" freq="1" friendlyPos="true"/>
  <laneAreaDetector id="e2__1227603550_1_0" lane="-1227603550#1_0" pos="5.5" length="41.9" freq="1" friendlyPos="true"/>
  <laneAreaDetector id="e2__1228099684_0" lane="-1228099684_0" pos="62.3" length="50.0" freq="1" friendlyPos="true"/>
  <laneAreaDetector id="e2_1227603551_2_0" lane="1227603551#2_0" pos="1.0" length="24.1" freq="1" friendlyPos="true"/>
  <laneAreaDetector id="e2_756030215_0" lane="756030215_0" pos="0.0" length="6.7" freq="1" friendlyPos="true"/>
  <laneAreaDetector id="e2__1227883867_1_0" lane="-1227883867#1_0" pos="0.0" length="0.2" freq="1" friendlyPos="true"/>
  <laneAreaDetector id="e2_1227883867_0_0" lane="1227883867#0_0" pos="0.0" length="4.0" freq="1" friendlyPos="true"/>
  <laneAreaDetector id="e2__1227883882_0" lane="-1227883882_0" pos="5.3" length="41.2" freq="1" friendlyPos="true"/>
  <laneAreaDetector id="e2_1227883867_1_0" lane="1227883867#1_0" pos="0.0" length="0.2" freq="1" friendlyPos="true"/>
  <laneAreaDetector id="e2_53960645_6_0" lane="53960645#6_0" pos="5.5" length="42.0" freq="1" friendlyPos="true"/>
  <laneAreaDetector id="e2__1228099685_0_0" lane="-1228099685#0_0" pos="4.8" length="39.4" freq="1" friendlyPos="true"/>
  <laneAreaDetector id="e2__756028261_0" lane="-756028261_0" pos="48.1" length="50.0" freq="1" friendlyPos="true"/>
  <laneAreaDetector id="e2_1228099684_0" lane="1228099684_0" pos="62.3" length="50.0" freq="1" friendlyPos="true"/>
  <laneAreaDetector id="e2_51962697_2_0" lane="51962697#2_0" pos="0.8" length="23.1" freq="1" friendlyPos="true"/>
  <laneAreaDetector id="e2__51962344_2_0" lane="-51962344#2_0" pos="0.0" length="0.2" freq="1" friendlyPos="true"/>
  <laneAreaDetector id="e2_1227603556_1_0" lane="1227603556#1_0" pos="0.0" length="14.1" freq="1" friendlyPos="true"/>
  <laneAreaDetector id="e2_51962344_1_0" lane="51962344#1_0" pos="82.2" length="50.0" freq="1" friendlyPos="true"/>
  <laneAreaDetector id="e2_1228099673_2_0" lane="1228099673#2_0" pos="2.3" length="29.1" freq="1" friendlyPos="true"/>
  <laneAreaDetector id="e2_51962344_2_0" lane="51962344#2_0" pos="0.0" length="0.2" freq="1" friendlyPos="true"/>
  <laneAreaDetector id="e2__51962350_1_0" lane="-51962350#1_0" pos="0.0" length="0.2" freq="1" friendlyPos="true"/>
  <laneAreaDetector id="e2_51962350_0_0" lane="51962350#0_0" pos="41.1" length="50.0" freq="1" friendlyPos="true"/>
  <laneAreaDetector id="e2_53960645_0_0" lane="53960645#0_0" pos="3.9" length="35.6" freq="1" friendlyPos="true"/>
  <laneAreaDetector id="e2__51962350_2_0" lane="-51962350#2_0" pos="5.8" length="43.1" freq="1" friendlyPos="true"/>
  <laneAreaDetector id="e2_107366880_3_0" lane="107366880#3_0" pos="4.2" length="37.0" freq="1" friendlyPos="true"/>
  <laneAreaDetector id="e2_51962350_1_0" lane="51962350#1_0" pos="0.0" length="0.2" freq="1" friendlyPos="true"/>
  <laneAreaDetector id="e2_51962351_0" lane="51962351_0" pos="48.3" length="50.0" freq="1" friendlyPos="true"/>
  <laneAreaDetector id="e2_53960645_1_0" lane="53960645#1_0" pos="4.0" length="36.0" freq="1" friendlyPos="true"/>
  <laneAreaDetector id="e2__51962355_1_0" lane="-51962355#1_0" pos="0.0" length="0.2" freq="1" friendlyPos="true"/>
  <laneAreaDetector id="e2_107366880_4_0" lane="107366880#4_0" pos="4.0" length="36.0" freq="1" friendlyPos="true"/>
  <laneAreaDetector id="e2_51962631_8_0" lane="51962631#8_0" pos="280.3" length="50.0" freq="1" friendlyPos="true"/>
  <laneAreaDetector id="e2__51962355_2_0" lane="-51962355#2_0" pos="33.3" length="50.0" freq="1" friendlyPos="true"/>
  <laneAreaDetector id="e2_409566592_3_0" lane="409566592#3_0" pos="0.0" length="6.7" freq="1" friendlyPos="true"/>
  <laneAreaDetector id="e2_51962355_1_0" lane="51962355#1_0" pos="0.0" length="0.2" freq="1" friendlyPos="true"/>
  <laneAreaDetector id="e2__51962372_2_0" lane="-51962372#2_0" pos="121.5" length="50.0" freq="1" friendlyPos="true"/>
  <laneAreaDetector id="e2_1227603556_0_0" lane="1227603556#0_0" pos="3.3" length="33.1" freq="1" friendlyPos="true"/>
  <laneAreaDetector id="e2_51962372_0_0" lane="51962372#0_0" pos="0.0" length="0.2" freq="1" friendlyPos="true"/>
  <laneAreaDetector id="e2__51962372_0_0" lane="-51962372#0_0" pos="0.0" length="0.2" freq="1" friendlyPos="true"/>
  <laneAreaDetector id="e2_1228099670_0" lane="1228099670_0" pos="0.0" length="16.0" freq="1" friendlyPos="true"/>
  <laneAreaDetector id="e2__51962387_0_0" lane="-51962387#0_0" pos="3.8" length="35.1" freq="1" friendlyPos="true"/>
  <laneAreaDetector id="e2_750471837_3_0" lane="750471837#3_0" pos="40.2" length="50.0" freq="1" friendlyPos="true"/>
  <laneAreaDetector id="e2__51962544_0" lane="-51962544_0" pos="125.0" length="50.0" freq="1" friendlyPos="true"/>
  <laneAreaDetector id="e2_409566596_0" lane="409566596_0" pos="0.2" length="20.7" freq="1" friendlyPos="true"/>
  <laneAreaDetector id="e2_1228099673_1_0" lane="1228099673#1_0" pos="3.3" length="33.2" freq="1" friendlyPos="true"/>
  <laneAreaDetector id="e2_51962572_0" lane="51962572_0" pos="116.3" length="50.0" freq="1" friendlyPos="true"/>
  <laneAreaDetector id="e2__51962631_5_0" lane="-51962631#5_0" pos="4.6" length="38.6" freq="1" friendlyPos="true"/>
  <laneAreaDetector id="e2_51962631_4_0" lane="51962631#4_0" pos="3.8" length="35.0" freq="1" friendlyPos="true"/>
  <laneAreaDetector id="e2_750471837_2_0" lane="750471837#2_0" pos="93.1" length="50.0" freq="1" friendlyPos="true"/>
  <laneAreaDetector id="e2_51962699_3_0" lane="51962699#3_0" pos="4.8" length="39.3" freq="1" friendlyPos="true"/>
  <laneAreaDetector id="e2_750471838_1_0" lane="750471838#1_0" pos="8.3" length="50.0" freq="1" friendlyPos="true"/>
  <laneAreaDetector id="e2_51962700_3_0" lane="51962700#3_0" pos="4.7" length="38.9" freq="1" friendlyPos="true"/>
  <laneAreaDetector id="e2_750471838_4_0" lane="750471838#4_0" pos="4.7" length="38.9" freq="1" friendlyPos="true"/>
  <laneAreaDetector id="e2__51962708_0_0" lane="-51962708#0_0" pos="75.4" length="50.0" freq="1" friendlyPos="true"/>
  <laneAreaDetector id="e2_53960645_5_0" lane="53960645#5_0" pos="4.1" length="36.4" freq="1" friendlyPos="true"/>
  <laneAreaDetector id="e2__51962712_0" lane="-51962712_0" pos="138.0" length="50.0" freq="1" friendlyPos="true"/>
  <laneAreaDetector id="e2_750471837_1_0" lane="750471837#1_0" pos="13.9" length="50.0" freq="1" friendlyPos="true"/>
  <laneAreaDetector id="e2_51962713_0" lane="51962713_0" pos="68.6" length="50.0" freq="1" friendlyPos="true"/>
  <laneAreaDetector id="e2_53960645_4_0" lane="53960645#4_0" pos="4.2" length="36.7" freq="1" friendlyPos="true"/>
  <laneAreaDetector id="e2_51962716_4_0" lane="51962716#4_0" pos="6.0" length="44.0" freq="1" friendlyPos="true"/>
  <laneAreaDetector id="e2_756028261_0" lane="756028261_0" pos="47.2" length="50.0" freq="1" friendlyPos="true"/>
  <laneAreaDetector id="e2__525739739_0" lane="-525739739_0" pos="57.6" length="50.0" freq="1" friendlyPos="true"/>
  <laneAreaDetector id="e2_525739383_1_0" lane="525739383#1_0" pos="0.0" length="0.2" freq="1" friendlyPos="true"/>
  <laneAreaDetector id="e2_53960645_2_0" lane="53960645#2_0" pos="4.5" length="38.1" freq="1" friendlyPos="true"/>
  <laneAreaDetector id="e2__756030215_0" lane="-756030215_0" pos="0.0" length="6.7" freq="1" friendlyPos="true"/>
  <laneAreaDetector id="e2_107366880_0_0" lane="107366880#0_0" pos="120.3" length="50.0" freq="1" friendlyPos="true"/>
  <laneAreaDetector id="e2_750471837_0_0" lane="750471837#0_0" pos="0.0" length="0.2" freq="1" friendlyPos="true"/>
  <laneAreaDetector id="e2_107366880_1_0" lane="107366880#1_0" pos="4.9" length="39.6" freq="1" friendlyPos="true"/>
  <laneAreaDetector id="e2_525739383_0_0" lane="525739383#0_0" pos="185.4" length="50.0" freq="1" friendlyPos="true"/>
  <laneAreaDetector id="e2_107366880_2_0" lane="107366880#2_0" pos="4.8" length="39.1" freq="1" friendlyPos="true"/>
  <laneAreaDetector id="e2_525739738_0_0" lane="525739738#0_0" pos="0.0" length="0.2" freq="1" friendlyPos="true"/>
  <laneAreaDetector id="e2_525739738_0_1" lane="525739738#0_1" pos="0.0" length="0.2" freq="1" friendlyPos="true"/>
  <laneAreaDetector id="e2_1093918317_0" lane="1093918317_0" pos="0.0" length="0.2" freq="1" friendlyPos="true"/>
  <laneAreaDetector id="e2_409566600_2_0" lane="409566600#2_0" pos="0.0" length="0.2" freq="1" friendlyPos="true"/>
  <laneAreaDetector id="e2_409566600_2_1" lane="409566600#2_1" pos="0.0" length="0.2" freq="1" friendlyPos="true"/>
  <laneAreaDetector id="e2_107627052_0" lane="107627052_0" pos="26.2" length="50.0" freq="1" friendlyPos="true"/>
  <laneAreaDetector id="e2_107627052_1" lane="107627052_1" pos="26.2" length="50.0" freq="1" friendlyPos="true"/>
  <laneAreaDetector id="e2_1442945729_0" lane="1442945729_0" pos="0.0" length="0.2" freq="1" friendlyPos="true"/>
  <laneAreaDetector id="e2_1442945729_1" lane="1442945729_1" pos="0.0" length="0.2" freq="1" friendlyPos="true"/>
  <laneAreaDetector id="e2_107644626_0" lane="107644626_0" pos="2.3" length="29.4" freq="1" friendlyPos="true"/>
  <laneAreaDetector id="e2_51962576_0_0" lane="51962576#0_0" pos="62.5" length="50.0" freq="1" friendlyPos="true"/>
  <laneAreaDetector id="e2_1227603548_0" lane="1227603548_0" pos="0.0" length="0.2" freq="1" friendlyPos="true"/>
  <laneAreaDetector id="e2_1227603548_1" lane="1227603548_1" pos="0.0" length="0.2" freq="1" friendlyPos="true"/>
  <laneAreaDetector id="e2_409566600_1_0" lane="409566600#1_0" pos="33.0" length="50.0" freq="1" friendlyPos="true"/>
  <laneAreaDetector id="e2_409566600_1_1" lane="409566600#1_1" pos="33.0" length="50.0" freq="1" friendlyPos="true"/>
  <laneAreaDetector id="e2_1227603545_0_0" lane="1227603545#0_0" pos="0.0" length="4.6" freq="1" friendlyPos="true"/>
  <laneAreaDetector id="e2_1227603545_0_1" lane="1227603545#0_1" pos="0.0" length="4.6" freq="1" friendlyPos="true"/>
  <laneAreaDetector id="e2_1227603545_1_0" lane="1227603545#1_0" pos="0.0" length="14.6" freq="1" friendlyPos="true"/>
  <laneAreaDetector id="e2_1227603545_1_1" lane="1227603545#1_1" pos="0.0" length="14.6" freq="1" friendlyPos="true"/>
  <laneAreaDetector id="e2_409566594_4_0" lane="409566594#4_0" pos="0.0" length="0.2" freq="1" friendlyPos="true"/>
  <laneAreaDetector id="e2_1227603545_4_0" lane="1227603545#4_0" pos="0.0" length="8.9" freq="1" friendlyPos="true"/>
  <laneAreaDetector id="e2_1227603545_4_1" lane="1227603545#4_1" pos="0.0" length="8.9" freq="1" friendlyPos="true"/>
  <laneAreaDetector id="e2_1227603545_5_0" lane="1227603545#5_0" pos="0.0" length="16.6" freq="1" friendlyPos="true"/>
  <laneAreaDetector id="e2_1227603545_5_1" lane="1227603545#5_1" pos="0.0" length="16.6" freq="1" friendlyPos="true"/>
  <laneAreaDetector id="e2_409566590_2_0" lane="409566590#2_0" pos="0.0" length="9.8" freq="1" friendlyPos="true"/>
  <laneAreaDetector id="e2_1227603549_2_0" lane="1227603549#2_0" pos="6.7" length="46.9" freq="1" friendlyPos="true"/>
  <laneAreaDetector id="e2_1227603549_2_1" lane="1227603549#2_1" pos="6.7" length="46.9" freq="1" friendlyPos="true"/>
  <laneAreaDetector id="e2_1442945728_0" lane="1442945728_0" pos="0.0" length="0.2" freq="1" friendlyPos="true"/>
  <laneAreaDetector id="e2_1442945728_1" lane="1442945728_1" pos="0.0" length="0.2" freq="1" friendlyPos="true"/>
  <laneAreaDetector id="e2_51962576_1_0" lane="51962576#1_0" pos="0.0" length="3.2" freq="1" friendlyPos="true"/>
  <laneAreaDetector id="e2_1227603556_2_0" lane="1227603556#2_0" pos="43.2" length="50.0" freq="1" friendlyPos="true"/>
  <laneAreaDetector id="e2_1228099673_0_0" lane="1228099673#0_0" pos="0.0" length="5.2" freq="1" friendlyPos="true"/>
  <laneAreaDetector id="e2_409566590_0_0" lane="409566590#0_0" pos="0.0" length="8.6" freq="1" friendlyPos="true"/>
  <laneAreaDetector id="e2_409566590_1_0" lane="409566590#1_0" pos="0.0" length="8.7" freq="1" friendlyPos="true"/>
  <laneAreaDetector id="e2_409566592_0_0" lane="409566592#0_0" pos="0.0" length="1.3" freq="1" friendlyPos="true"/>
  <laneAreaDetector id="e2_409566592_1_0" lane="409566592#1_0" pos="0.0" length="8.3" freq="1" friendlyPos="true"/>
  <laneAreaDetector id="e2_409566592_2_0" lane="409566592#2_0" pos="0.0" length="8.6" freq="1" friendlyPos="true"/>
  <laneAreaDetector id="e2_409566594_0_0" lane="409566594#0_0" pos="0.0" length="8.2" freq="1" friendlyPos="true"/>
  <laneAreaDetector id="e2_409566594_1_0" lane="409566594#1_0" pos="0.0" length="7.5" freq="1" friendlyPos="true"/>
  <laneAreaDetector id="e2_409566594_2_0" lane="409566594#2_0" pos="0.0" length="9.2" freq="1" friendlyPos="true"/>
  <laneAreaDetector id="e2_409566594_3_0" lane="409566594#3_0" pos="0.0" length="4.3" freq="1" friendlyPos="true"/>
  <laneAreaDetector id="e2_53960645_3_0" lane="53960645#3_0" pos="4.9" length="39.7" freq="1" friendlyPos="true"/>
  <laneAreaDetector id="e2_750471838_5_0" lane="750471838#5_0" pos="62.8" length="50.0" freq="1" friendlyPos="true"/>
  <laneAreaDetector id="e2_750471838_2_0" lane="750471838#2_0" pos="0.0" length="5.7" freq="1" friendlyPos="true"/>
  <laneAreaDetector id="e2_750471838_3_0" lane="750471838#3_0" pos="0.0" length="17.2" freq="1" friendlyPos="true"/>

</additional>
