<?xml version='1.0' encoding='UTF-8'?>
<edges>
  <edge id='N_to_C' from='N' to='C' numLanes='1' speed='13.9'/>
  <edge id='C_to_N' from='C' to='N' numLanes='1' speed='13.9'/>
  <edge id='S_to_C' from='S' to='C' numLanes='1' speed='13.9'/>
  <edge id='C_to_S' from='C' to='S' numLanes='1' speed='13.9'/>
  <edge id='E_to_C' from='E' to='C' numLanes='1' speed='13.9'/>
  <edge id='C_to_E' from='C' to='E' numLanes='1' speed='13.9'/>
  <edge id='W_to_C' from='W' to='C' numLanes='1' speed='13.9'/>
  <edge id='C_to_W' from='C' to='W' numLanes='1' speed='13.9'/>
</edges>
